
---------- Begin Simulation Statistics ----------
sim_seconds                                  0.861802                       # Number of seconds simulated
sim_ticks                                861801856000                       # Number of ticks simulated
final_tick                               54388423263501                       # Number of ticks from beginning of simulation (restored from checkpoints and never reset)
sim_freq                                 1000000000000                       # Frequency of simulated ticks
host_inst_rate                                 107593                       # Simulator instruction rate (inst/s)
host_op_rate                                   178210                       # Simulator op (including micro ops) rate (op/s)
host_tick_rate                              331202119                       # Simulator tick rate (ticks/s)
host_mem_usage                                1866548                       # Number of bytes of host memory used
host_seconds                                  2602.04                       # Real time elapsed on the host
sim_insts                                   279962463                       # Number of instructions simulated
sim_ops                                     463709823                       # Number of ops (including micro ops) simulated
system.voltage_domain.voltage                       1                       # Voltage in Volts
system.clk_domain.clock                          1000                       # Clock period in ticks
system.mem_ctrls.bytes_read::ruby.dir_cntrl0    281706688                       # Number of bytes read from this memory
system.mem_ctrls.bytes_read::total          281706688                       # Number of bytes read from this memory
system.mem_ctrls.bytes_written::ruby.dir_cntrl0    140350656                       # Number of bytes written to this memory
system.mem_ctrls.bytes_written::total       140350656                       # Number of bytes written to this memory
system.mem_ctrls.num_reads::ruby.dir_cntrl0      4401667                       # Number of read requests responded to by this memory
system.mem_ctrls.num_reads::total             4401667                       # Number of read requests responded to by this memory
system.mem_ctrls.num_writes::ruby.dir_cntrl0      2192979                       # Number of write requests responded to by this memory
system.mem_ctrls.num_writes::total            2192979                       # Number of write requests responded to by this memory
system.mem_ctrls.bw_read::ruby.dir_cntrl0    326881041                       # Total read bandwidth from this memory (bytes/s)
system.mem_ctrls.bw_read::total             326881041                       # Total read bandwidth from this memory (bytes/s)
system.mem_ctrls.bw_write::ruby.dir_cntrl0    162857222                       # Write bandwidth from this memory (bytes/s)
system.mem_ctrls.bw_write::total            162857222                       # Write bandwidth from this memory (bytes/s)
system.mem_ctrls.bw_total::ruby.dir_cntrl0    489738263                       # Total bandwidth to/from this memory (bytes/s)
system.mem_ctrls.bw_total::total            489738263                       # Total bandwidth to/from this memory (bytes/s)
system.mem_ctrls.readReqs                     4401667                       # Number of read requests accepted
system.mem_ctrls.writeReqs                    2192979                       # Number of write requests accepted
system.mem_ctrls.readBursts                   4401667                       # Number of DRAM read bursts, including those serviced by the write queue
system.mem_ctrls.writeBursts                  2192979                       # Number of DRAM write bursts, including those merged in the write queue
system.mem_ctrls.bytesReadDRAM              281623488                       # Total number of bytes read from DRAM
system.mem_ctrls.bytesReadWrQ                   83200                       # Total number of bytes read from write queue
system.mem_ctrls.bytesWritten               140351104                       # Total number of bytes written to DRAM
system.mem_ctrls.bytesReadSys               281706688                       # Total read bytes from the system interface side
system.mem_ctrls.bytesWrittenSys            140350656                       # Total written bytes from the system interface side
system.mem_ctrls.servicedByWrQ                   1300                       # Number of DRAM read bursts serviced by the write queue
system.mem_ctrls.mergedWrBursts                     1                       # Number of DRAM write bursts merged with an existing one
system.mem_ctrls.neitherReadNorWriteReqs            0                       # Number of requests that are neither read nor write
system.mem_ctrls.perBankRdBursts::0            271461                       # Per bank write bursts
system.mem_ctrls.perBankRdBursts::1            262351                       # Per bank write bursts
system.mem_ctrls.perBankRdBursts::2            259830                       # Per bank write bursts
system.mem_ctrls.perBankRdBursts::3            263502                       # Per bank write bursts
system.mem_ctrls.perBankRdBursts::4            289946                       # Per bank write bursts
system.mem_ctrls.perBankRdBursts::5            291370                       # Per bank write bursts
system.mem_ctrls.perBankRdBursts::6            277197                       # Per bank write bursts
system.mem_ctrls.perBankRdBursts::7            264723                       # Per bank write bursts
system.mem_ctrls.perBankRdBursts::8            293144                       # Per bank write bursts
system.mem_ctrls.perBankRdBursts::9            274600                       # Per bank write bursts
system.mem_ctrls.perBankRdBursts::10           273805                       # Per bank write bursts
system.mem_ctrls.perBankRdBursts::11           276871                       # Per bank write bursts
system.mem_ctrls.perBankRdBursts::12           273884                       # Per bank write bursts
system.mem_ctrls.perBankRdBursts::13           278446                       # Per bank write bursts
system.mem_ctrls.perBankRdBursts::14           273269                       # Per bank write bursts
system.mem_ctrls.perBankRdBursts::15           275968                       # Per bank write bursts
system.mem_ctrls.perBankWrBursts::0            135352                       # Per bank write bursts
system.mem_ctrls.perBankWrBursts::1            139133                       # Per bank write bursts
system.mem_ctrls.perBankWrBursts::2            135440                       # Per bank write bursts
system.mem_ctrls.perBankWrBursts::3            134887                       # Per bank write bursts
system.mem_ctrls.perBankWrBursts::4            137495                       # Per bank write bursts
system.mem_ctrls.perBankWrBursts::5            139968                       # Per bank write bursts
system.mem_ctrls.perBankWrBursts::6            143724                       # Per bank write bursts
system.mem_ctrls.perBankWrBursts::7            135852                       # Per bank write bursts
system.mem_ctrls.perBankWrBursts::8            141835                       # Per bank write bursts
system.mem_ctrls.perBankWrBursts::9            136074                       # Per bank write bursts
system.mem_ctrls.perBankWrBursts::10           134223                       # Per bank write bursts
system.mem_ctrls.perBankWrBursts::11           136457                       # Per bank write bursts
system.mem_ctrls.perBankWrBursts::12           134746                       # Per bank write bursts
system.mem_ctrls.perBankWrBursts::13           138626                       # Per bank write bursts
system.mem_ctrls.perBankWrBursts::14           134589                       # Per bank write bursts
system.mem_ctrls.perBankWrBursts::15           134585                       # Per bank write bursts
system.mem_ctrls.numRdRetry                         0                       # Number of times read queue was full causing retry
system.mem_ctrls.numWrRetry                         0                       # Number of times write queue was full causing retry
system.mem_ctrls.totGap                  861801443500                       # Total gap between requests
system.mem_ctrls.readPktSize::0                     0                       # Read request sizes (log2)
system.mem_ctrls.readPktSize::1                     0                       # Read request sizes (log2)
system.mem_ctrls.readPktSize::2                     0                       # Read request sizes (log2)
system.mem_ctrls.readPktSize::3                     0                       # Read request sizes (log2)
system.mem_ctrls.readPktSize::4                     0                       # Read request sizes (log2)
system.mem_ctrls.readPktSize::5                     0                       # Read request sizes (log2)
system.mem_ctrls.readPktSize::6               4401667                       # Read request sizes (log2)
system.mem_ctrls.writePktSize::0                    0                       # Write request sizes (log2)
system.mem_ctrls.writePktSize::1                    0                       # Write request sizes (log2)
system.mem_ctrls.writePktSize::2                    0                       # Write request sizes (log2)
system.mem_ctrls.writePktSize::3                    0                       # Write request sizes (log2)
system.mem_ctrls.writePktSize::4                    0                       # Write request sizes (log2)
system.mem_ctrls.writePktSize::5                    0                       # Write request sizes (log2)
system.mem_ctrls.writePktSize::6              2192979                       # Write request sizes (log2)
system.mem_ctrls.rdQLenPdf::0                 4348052                       # What read queue length does an incoming req see
system.mem_ctrls.rdQLenPdf::1                   51898                       # What read queue length does an incoming req see
system.mem_ctrls.rdQLenPdf::2                     411                       # What read queue length does an incoming req see
system.mem_ctrls.rdQLenPdf::3                       6                       # What read queue length does an incoming req see
system.mem_ctrls.rdQLenPdf::4                       0                       # What read queue length does an incoming req see
system.mem_ctrls.rdQLenPdf::5                       0                       # What read queue length does an incoming req see
system.mem_ctrls.rdQLenPdf::6                       0                       # What read queue length does an incoming req see
system.mem_ctrls.rdQLenPdf::7                       0                       # What read queue length does an incoming req see
system.mem_ctrls.rdQLenPdf::8                       0                       # What read queue length does an incoming req see
system.mem_ctrls.rdQLenPdf::9                       0                       # What read queue length does an incoming req see
system.mem_ctrls.rdQLenPdf::10                      0                       # What read queue length does an incoming req see
system.mem_ctrls.rdQLenPdf::11                      0                       # What read queue length does an incoming req see
system.mem_ctrls.rdQLenPdf::12                      0                       # What read queue length does an incoming req see
system.mem_ctrls.rdQLenPdf::13                      0                       # What read queue length does an incoming req see
system.mem_ctrls.rdQLenPdf::14                      0                       # What read queue length does an incoming req see
system.mem_ctrls.rdQLenPdf::15                      0                       # What read queue length does an incoming req see
system.mem_ctrls.rdQLenPdf::16                      0                       # What read queue length does an incoming req see
system.mem_ctrls.rdQLenPdf::17                      0                       # What read queue length does an incoming req see
system.mem_ctrls.rdQLenPdf::18                      0                       # What read queue length does an incoming req see
system.mem_ctrls.rdQLenPdf::19                      0                       # What read queue length does an incoming req see
system.mem_ctrls.rdQLenPdf::20                      0                       # What read queue length does an incoming req see
system.mem_ctrls.rdQLenPdf::21                      0                       # What read queue length does an incoming req see
system.mem_ctrls.rdQLenPdf::22                      0                       # What read queue length does an incoming req see
system.mem_ctrls.rdQLenPdf::23                      0                       # What read queue length does an incoming req see
system.mem_ctrls.rdQLenPdf::24                      0                       # What read queue length does an incoming req see
system.mem_ctrls.rdQLenPdf::25                      0                       # What read queue length does an incoming req see
system.mem_ctrls.rdQLenPdf::26                      0                       # What read queue length does an incoming req see
system.mem_ctrls.rdQLenPdf::27                      0                       # What read queue length does an incoming req see
system.mem_ctrls.rdQLenPdf::28                      0                       # What read queue length does an incoming req see
system.mem_ctrls.rdQLenPdf::29                      0                       # What read queue length does an incoming req see
system.mem_ctrls.rdQLenPdf::30                      0                       # What read queue length does an incoming req see
system.mem_ctrls.rdQLenPdf::31                      0                       # What read queue length does an incoming req see
system.mem_ctrls.wrQLenPdf::0                       0                       # What write queue length does an incoming req see
system.mem_ctrls.wrQLenPdf::1                       0                       # What write queue length does an incoming req see
system.mem_ctrls.wrQLenPdf::2                       0                       # What write queue length does an incoming req see
system.mem_ctrls.wrQLenPdf::3                       0                       # What write queue length does an incoming req see
system.mem_ctrls.wrQLenPdf::4                       0                       # What write queue length does an incoming req see
system.mem_ctrls.wrQLenPdf::5                       0                       # What write queue length does an incoming req see
system.mem_ctrls.wrQLenPdf::6                       0                       # What write queue length does an incoming req see
system.mem_ctrls.wrQLenPdf::7                       0                       # What write queue length does an incoming req see
system.mem_ctrls.wrQLenPdf::8                       0                       # What write queue length does an incoming req see
system.mem_ctrls.wrQLenPdf::9                       0                       # What write queue length does an incoming req see
system.mem_ctrls.wrQLenPdf::10                      0                       # What write queue length does an incoming req see
system.mem_ctrls.wrQLenPdf::11                      0                       # What write queue length does an incoming req see
system.mem_ctrls.wrQLenPdf::12                      0                       # What write queue length does an incoming req see
system.mem_ctrls.wrQLenPdf::13                      0                       # What write queue length does an incoming req see
system.mem_ctrls.wrQLenPdf::14                      0                       # What write queue length does an incoming req see
system.mem_ctrls.wrQLenPdf::15                   2799                       # What write queue length does an incoming req see
system.mem_ctrls.wrQLenPdf::16                   3357                       # What write queue length does an incoming req see
system.mem_ctrls.wrQLenPdf::17                 135271                       # What write queue length does an incoming req see
system.mem_ctrls.wrQLenPdf::18                 136865                       # What write queue length does an incoming req see
system.mem_ctrls.wrQLenPdf::19                 136845                       # What write queue length does an incoming req see
system.mem_ctrls.wrQLenPdf::20                 136904                       # What write queue length does an incoming req see
system.mem_ctrls.wrQLenPdf::21                 136811                       # What write queue length does an incoming req see
system.mem_ctrls.wrQLenPdf::22                 136798                       # What write queue length does an incoming req see
system.mem_ctrls.wrQLenPdf::23                 136815                       # What write queue length does an incoming req see
system.mem_ctrls.wrQLenPdf::24                 136789                       # What write queue length does an incoming req see
system.mem_ctrls.wrQLenPdf::25                 136770                       # What write queue length does an incoming req see
system.mem_ctrls.wrQLenPdf::26                 136757                       # What write queue length does an incoming req see
system.mem_ctrls.wrQLenPdf::27                 136743                       # What write queue length does an incoming req see
system.mem_ctrls.wrQLenPdf::28                 136725                       # What write queue length does an incoming req see
system.mem_ctrls.wrQLenPdf::29                 136717                       # What write queue length does an incoming req see
system.mem_ctrls.wrQLenPdf::30                 136696                       # What write queue length does an incoming req see
system.mem_ctrls.wrQLenPdf::31                 136648                       # What write queue length does an incoming req see
system.mem_ctrls.wrQLenPdf::32                 136638                       # What write queue length does an incoming req see
system.mem_ctrls.wrQLenPdf::33                     20                       # What write queue length does an incoming req see
system.mem_ctrls.wrQLenPdf::34                      3                       # What write queue length does an incoming req see
system.mem_ctrls.wrQLenPdf::35                      3                       # What write queue length does an incoming req see
system.mem_ctrls.wrQLenPdf::36                      2                       # What write queue length does an incoming req see
system.mem_ctrls.wrQLenPdf::37                      2                       # What write queue length does an incoming req see
system.mem_ctrls.wrQLenPdf::38                      0                       # What write queue length does an incoming req see
system.mem_ctrls.wrQLenPdf::39                      0                       # What write queue length does an incoming req see
system.mem_ctrls.wrQLenPdf::40                      0                       # What write queue length does an incoming req see
system.mem_ctrls.wrQLenPdf::41                      0                       # What write queue length does an incoming req see
system.mem_ctrls.wrQLenPdf::42                      0                       # What write queue length does an incoming req see
system.mem_ctrls.wrQLenPdf::43                      0                       # What write queue length does an incoming req see
system.mem_ctrls.wrQLenPdf::44                      0                       # What write queue length does an incoming req see
system.mem_ctrls.wrQLenPdf::45                      0                       # What write queue length does an incoming req see
system.mem_ctrls.wrQLenPdf::46                      0                       # What write queue length does an incoming req see
system.mem_ctrls.wrQLenPdf::47                      0                       # What write queue length does an incoming req see
system.mem_ctrls.wrQLenPdf::48                      0                       # What write queue length does an incoming req see
system.mem_ctrls.wrQLenPdf::49                      0                       # What write queue length does an incoming req see
system.mem_ctrls.wrQLenPdf::50                      0                       # What write queue length does an incoming req see
system.mem_ctrls.wrQLenPdf::51                      0                       # What write queue length does an incoming req see
system.mem_ctrls.wrQLenPdf::52                      0                       # What write queue length does an incoming req see
system.mem_ctrls.wrQLenPdf::53                      0                       # What write queue length does an incoming req see
system.mem_ctrls.wrQLenPdf::54                      0                       # What write queue length does an incoming req see
system.mem_ctrls.wrQLenPdf::55                      0                       # What write queue length does an incoming req see
system.mem_ctrls.wrQLenPdf::56                      0                       # What write queue length does an incoming req see
system.mem_ctrls.wrQLenPdf::57                      0                       # What write queue length does an incoming req see
system.mem_ctrls.wrQLenPdf::58                      0                       # What write queue length does an incoming req see
system.mem_ctrls.wrQLenPdf::59                      0                       # What write queue length does an incoming req see
system.mem_ctrls.wrQLenPdf::60                      0                       # What write queue length does an incoming req see
system.mem_ctrls.wrQLenPdf::61                      0                       # What write queue length does an incoming req see
system.mem_ctrls.wrQLenPdf::62                      0                       # What write queue length does an incoming req see
system.mem_ctrls.wrQLenPdf::63                      0                       # What write queue length does an incoming req see
system.mem_ctrls.bytesPerActivate::samples      5877355                       # Bytes accessed per row activation
system.mem_ctrls.bytesPerActivate::mean     71.796726                       # Bytes accessed per row activation
system.mem_ctrls.bytesPerActivate::gmean    68.732536                       # Bytes accessed per row activation
system.mem_ctrls.bytesPerActivate::stdev    37.035587                       # Bytes accessed per row activation
system.mem_ctrls.bytesPerActivate::0-127      5342263     90.90%     90.90% # Bytes accessed per row activation
system.mem_ctrls.bytesPerActivate::128-255       503933      8.57%     99.47% # Bytes accessed per row activation
system.mem_ctrls.bytesPerActivate::256-383        18138      0.31%     99.78% # Bytes accessed per row activation
system.mem_ctrls.bytesPerActivate::384-511         6485      0.11%     99.89% # Bytes accessed per row activation
system.mem_ctrls.bytesPerActivate::512-639         1382      0.02%     99.91% # Bytes accessed per row activation
system.mem_ctrls.bytesPerActivate::640-767          851      0.01%     99.93% # Bytes accessed per row activation
system.mem_ctrls.bytesPerActivate::768-895          605      0.01%     99.94% # Bytes accessed per row activation
system.mem_ctrls.bytesPerActivate::896-1023          415      0.01%     99.94% # Bytes accessed per row activation
system.mem_ctrls.bytesPerActivate::1024-1151         3283      0.06%    100.00% # Bytes accessed per row activation
system.mem_ctrls.bytesPerActivate::total      5877355                       # Bytes accessed per row activation
system.mem_ctrls.rdPerTurnAround::samples       136623                       # Reads before turning the bus around for writes
system.mem_ctrls.rdPerTurnAround::mean      32.208289                       # Reads before turning the bus around for writes
system.mem_ctrls.rdPerTurnAround::stdev      8.874494                       # Reads before turning the bus around for writes
system.mem_ctrls.rdPerTurnAround::0-15            138      0.10%      0.10% # Reads before turning the bus around for writes
system.mem_ctrls.rdPerTurnAround::16-31         69712     51.03%     51.13% # Reads before turning the bus around for writes
system.mem_ctrls.rdPerTurnAround::32-47         64969     47.55%     98.68% # Reads before turning the bus around for writes
system.mem_ctrls.rdPerTurnAround::48-63          1209      0.88%     99.56% # Reads before turning the bus around for writes
system.mem_ctrls.rdPerTurnAround::64-79            34      0.02%     99.59% # Reads before turning the bus around for writes
system.mem_ctrls.rdPerTurnAround::80-95            73      0.05%     99.64% # Reads before turning the bus around for writes
system.mem_ctrls.rdPerTurnAround::96-111          119      0.09%     99.73% # Reads before turning the bus around for writes
system.mem_ctrls.rdPerTurnAround::112-127          120      0.09%     99.82% # Reads before turning the bus around for writes
system.mem_ctrls.rdPerTurnAround::128-143           98      0.07%     99.89% # Reads before turning the bus around for writes
system.mem_ctrls.rdPerTurnAround::144-159           65      0.05%     99.94% # Reads before turning the bus around for writes
system.mem_ctrls.rdPerTurnAround::160-175           39      0.03%     99.97% # Reads before turning the bus around for writes
system.mem_ctrls.rdPerTurnAround::176-191           25      0.02%     99.98% # Reads before turning the bus around for writes
system.mem_ctrls.rdPerTurnAround::192-207            8      0.01%     99.99% # Reads before turning the bus around for writes
system.mem_ctrls.rdPerTurnAround::208-223            6      0.00%     99.99% # Reads before turning the bus around for writes
system.mem_ctrls.rdPerTurnAround::224-239            1      0.00%     99.99% # Reads before turning the bus around for writes
system.mem_ctrls.rdPerTurnAround::288-303            1      0.00%    100.00% # Reads before turning the bus around for writes
system.mem_ctrls.rdPerTurnAround::304-319            2      0.00%    100.00% # Reads before turning the bus around for writes
system.mem_ctrls.rdPerTurnAround::336-351            1      0.00%    100.00% # Reads before turning the bus around for writes
system.mem_ctrls.rdPerTurnAround::352-367            1      0.00%    100.00% # Reads before turning the bus around for writes
system.mem_ctrls.rdPerTurnAround::368-383            1      0.00%    100.00% # Reads before turning the bus around for writes
system.mem_ctrls.rdPerTurnAround::432-447            1      0.00%    100.00% # Reads before turning the bus around for writes
system.mem_ctrls.rdPerTurnAround::total        136623                       # Reads before turning the bus around for writes
system.mem_ctrls.wrPerTurnAround::samples       136623                       # Writes before turning the bus around for reads
system.mem_ctrls.wrPerTurnAround::mean      16.051368                       # Writes before turning the bus around for reads
system.mem_ctrls.wrPerTurnAround::gmean     16.047761                       # Writes before turning the bus around for reads
system.mem_ctrls.wrPerTurnAround::stdev      0.366861                       # Writes before turning the bus around for reads
system.mem_ctrls.wrPerTurnAround::16           133213     97.50%     97.50% # Writes before turning the bus around for reads
system.mem_ctrls.wrPerTurnAround::17              419      0.31%     97.81% # Writes before turning the bus around for reads
system.mem_ctrls.wrPerTurnAround::18             2850      2.09%     99.90% # Writes before turning the bus around for reads
system.mem_ctrls.wrPerTurnAround::19               38      0.03%     99.92% # Writes before turning the bus around for reads
system.mem_ctrls.wrPerTurnAround::20                4      0.00%     99.93% # Writes before turning the bus around for reads
system.mem_ctrls.wrPerTurnAround::21               22      0.02%     99.94% # Writes before turning the bus around for reads
system.mem_ctrls.wrPerTurnAround::22               14      0.01%     99.95% # Writes before turning the bus around for reads
system.mem_ctrls.wrPerTurnAround::23                4      0.00%     99.96% # Writes before turning the bus around for reads
system.mem_ctrls.wrPerTurnAround::24               34      0.02%     99.98% # Writes before turning the bus around for reads
system.mem_ctrls.wrPerTurnAround::25                8      0.01%     99.99% # Writes before turning the bus around for reads
system.mem_ctrls.wrPerTurnAround::26                2      0.00%     99.99% # Writes before turning the bus around for reads
system.mem_ctrls.wrPerTurnAround::27                1      0.00%     99.99% # Writes before turning the bus around for reads
system.mem_ctrls.wrPerTurnAround::28               13      0.01%    100.00% # Writes before turning the bus around for reads
system.mem_ctrls.wrPerTurnAround::32                1      0.00%    100.00% # Writes before turning the bus around for reads
system.mem_ctrls.wrPerTurnAround::total        136623                       # Writes before turning the bus around for reads
system.mem_ctrls.totQLat                 113333541439                       # Total ticks spent queuing
system.mem_ctrls.totMemAccLat            195840422689                       # Total ticks spent from burst creation until serviced by the DRAM
system.mem_ctrls.totBusLat                22001835000                       # Total ticks spent in databus transfers
system.mem_ctrls.avgQLat                     25755.47                       # Average queueing delay per DRAM burst
system.mem_ctrls.avgBusLat                    5000.00                       # Average bus latency per DRAM burst
system.mem_ctrls.avgMemAccLat                44505.47                       # Average memory access latency per DRAM burst
system.mem_ctrls.avgRdBW                       326.78                       # Average DRAM read bandwidth in MiByte/s
system.mem_ctrls.avgWrBW                       162.86                       # Average achieved write bandwidth in MiByte/s
system.mem_ctrls.avgRdBWSys                    326.88                       # Average system read bandwidth in MiByte/s
system.mem_ctrls.avgWrBWSys                    162.86                       # Average system write bandwidth in MiByte/s
system.mem_ctrls.peakBW                      12800.00                       # Theoretical peak bandwidth in MiByte/s
system.mem_ctrls.busUtil                         3.83                       # Data bus utilization in percentage
system.mem_ctrls.busUtilRead                     2.55                       # Data bus utilization in percentage for reads
system.mem_ctrls.busUtilWrite                    1.27                       # Data bus utilization in percentage for writes
system.mem_ctrls.avgRdQLen                       1.01                       # Average read queue length when enqueuing
system.mem_ctrls.avgWrQLen                      25.63                       # Average write queue length when enqueuing
system.mem_ctrls.readRowHits                   615594                       # Number of row buffer hits during reads
system.mem_ctrls.writeRowHits                  100405                       # Number of row buffer hits during writes
system.mem_ctrls.readRowHitRate                 13.99                       # Row buffer hit rate for reads
system.mem_ctrls.writeRowHitRate                 4.58                       # Row buffer hit rate for writes
system.mem_ctrls.avgGap                     130681.99                       # Average gap between requests
system.mem_ctrls.pageHitRate                    10.86                       # Row buffer hit rate, read and write combined
system.mem_ctrls_0.actEnergy              22097887560                       # Energy for activate commands per rank (pJ)
system.mem_ctrls_0.preEnergy              12057379125                       # Energy for precharge commands per rank (pJ)
system.mem_ctrls_0.readEnergy             17120922000                       # Energy for read commands per rank (pJ)
system.mem_ctrls_0.writeEnergy             7152131520                       # Energy for write commands per rank (pJ)
system.mem_ctrls_0.refreshEnergy          56793438000                       # Energy for refresh commands per rank (pJ)
system.mem_ctrls_0.actBackEnergy         557200520325                       # Energy for active background per rank (pJ)
system.mem_ctrls_0.preBackEnergy          32945451000                       # Energy for precharge background per rank (pJ)
system.mem_ctrls_0.totalEnergy           705367729530                       # Total energy per rank (pJ)
system.mem_ctrls_0.averagePower            811.205996                       # Core power per rank (mW)
system.mem_ctrls_0.memoryStateTime::IDLE  48850850752                       # Time in different power states
system.mem_ctrls_0.memoryStateTime::REF   28777580000                       # Time in different power states
system.mem_ctrls_0.memoryStateTime::PRE_PDN            0                       # Time in different power states
system.mem_ctrls_0.memoryStateTime::ACT  784176096248                       # Time in different power states
system.mem_ctrls_0.memoryStateTime::ACT_PDN            0                       # Time in different power states
system.mem_ctrls_1.actEnergy              22397588640                       # Energy for activate commands per rank (pJ)
system.mem_ctrls_1.preEnergy              12220906500                       # Energy for precharge commands per rank (pJ)
system.mem_ctrls_1.readEnergy             17434716000                       # Energy for read commands per rank (pJ)
system.mem_ctrls_1.writeEnergy             7085296800                       # Energy for write commands per rank (pJ)
system.mem_ctrls_1.refreshEnergy          56793438000                       # Energy for refresh commands per rank (pJ)
system.mem_ctrls_1.actBackEnergy         561487312485                       # Energy for active background per rank (pJ)
system.mem_ctrls_1.preBackEnergy          29185107000                       # Energy for precharge background per rank (pJ)
system.mem_ctrls_1.totalEnergy           706604365425                       # Total energy per rank (pJ)
system.mem_ctrls_1.averagePower            812.628185                       # Core power per rank (mW)
system.mem_ctrls_1.memoryStateTime::IDLE  42427263000                       # Time in different power states
system.mem_ctrls_1.memoryStateTime::REF   28777580000                       # Time in different power states
system.mem_ctrls_1.memoryStateTime::PRE_PDN            0                       # Time in different power states
system.mem_ctrls_1.memoryStateTime::ACT  790600665750                       # Time in different power states
system.mem_ctrls_1.memoryStateTime::ACT_PDN            0                       # Time in different power states
system.cpu_voltage_domain.voltage                   1                       # Voltage in Volts
system.cpu_clk_domain.clock                       500                       # Clock period in ticks
system.cpu0.apic_clk_domain.clock                8000                       # Clock period in ticks
system.cpu0.numCycles                      1725680268                       # number of cpu cycles simulated
system.cpu0.numWorkItemsStarted                     0                       # number of work items this cpu started
system.cpu0.numWorkItemsCompleted                   0                       # number of work items this cpu completed
system.cpu0.kern.inst.arm                           0                       # number of arm instructions executed
system.cpu0.kern.inst.quiesce                       0                       # number of quiesce instructions executed
system.cpu0.committedInsts                  124213688                       # Number of instructions committed
system.cpu0.committedOps                    203545226                       # Number of ops (including micro ops) committed
system.cpu0.num_int_alu_accesses            158368886                       # Number of integer alu accesses
system.cpu0.num_fp_alu_accesses              51469713                       # Number of float alu accesses
system.cpu0.num_func_calls                    2430051                       # number of times a function call or return occured
system.cpu0.num_conditional_control_insts      7430193                       # number of instructions that are conditional controls
system.cpu0.num_int_insts                   158368886                       # number of integer instructions
system.cpu0.num_fp_insts                     51469713                       # number of float instructions
system.cpu0.num_int_register_reads          337354450                       # number of times the integer registers were read
system.cpu0.num_int_register_writes         126341684                       # number of times the integer registers were written
system.cpu0.num_fp_register_reads            96849695                       # number of times the floating registers were read
system.cpu0.num_fp_register_writes           49751788                       # number of times the floating registers were written
system.cpu0.num_cc_register_reads            81572005                       # number of times the CC registers were read
system.cpu0.num_cc_register_writes           70182520                       # number of times the CC registers were written
system.cpu0.num_mem_refs                     42497961                       # number of memory refs
system.cpu0.num_load_insts                   33917677                       # Number of load instructions
system.cpu0.num_store_insts                   8580284                       # Number of store instructions
system.cpu0.num_idle_cycles              943397946.312038                       # Number of idle cycles
system.cpu0.num_busy_cycles              782282321.687962                       # Number of busy cycles
system.cpu0.not_idle_fraction                0.453318                       # Percentage of non-idle cycles
system.cpu0.idle_fraction                    0.546682                       # Percentage of idle cycles
system.cpu0.Branches                         11822604                       # Number of branches fetched
system.cpu0.op_class::No_OpClass              1812145      0.89%      0.89% # Class of executed instruction
system.cpu0.op_class::IntAlu                117183217     57.57%     58.46% # Class of executed instruction
system.cpu0.op_class::IntMult                    4294      0.00%     58.46% # Class of executed instruction
system.cpu0.op_class::IntDiv                     4447      0.00%     58.46% # Class of executed instruction
system.cpu0.op_class::FloatAdd               42045751     20.66%     79.12% # Class of executed instruction
system.cpu0.op_class::FloatCmp                      0      0.00%     79.12% # Class of executed instruction
system.cpu0.op_class::FloatCvt                      0      0.00%     79.12% # Class of executed instruction
system.cpu0.op_class::FloatMult                     0      0.00%     79.12% # Class of executed instruction
system.cpu0.op_class::FloatDiv                      0      0.00%     79.12% # Class of executed instruction
system.cpu0.op_class::FloatSqrt                     0      0.00%     79.12% # Class of executed instruction
system.cpu0.op_class::SimdAdd                       0      0.00%     79.12% # Class of executed instruction
system.cpu0.op_class::SimdAddAcc                    0      0.00%     79.12% # Class of executed instruction
system.cpu0.op_class::SimdAlu                       0      0.00%     79.12% # Class of executed instruction
system.cpu0.op_class::SimdCmp                       0      0.00%     79.12% # Class of executed instruction
system.cpu0.op_class::SimdCvt                       0      0.00%     79.12% # Class of executed instruction
system.cpu0.op_class::SimdMisc                      0      0.00%     79.12% # Class of executed instruction
system.cpu0.op_class::SimdMult                      0      0.00%     79.12% # Class of executed instruction
system.cpu0.op_class::SimdMultAcc                   0      0.00%     79.12% # Class of executed instruction
system.cpu0.op_class::SimdShift                     0      0.00%     79.12% # Class of executed instruction
system.cpu0.op_class::SimdShiftAcc                  0      0.00%     79.12% # Class of executed instruction
system.cpu0.op_class::SimdSqrt                      0      0.00%     79.12% # Class of executed instruction
system.cpu0.op_class::SimdFloatAdd                  0      0.00%     79.12% # Class of executed instruction
system.cpu0.op_class::SimdFloatAlu                  0      0.00%     79.12% # Class of executed instruction
system.cpu0.op_class::SimdFloatCmp                  0      0.00%     79.12% # Class of executed instruction
system.cpu0.op_class::SimdFloatCvt                  0      0.00%     79.12% # Class of executed instruction
system.cpu0.op_class::SimdFloatDiv                  0      0.00%     79.12% # Class of executed instruction
system.cpu0.op_class::SimdFloatMisc                 0      0.00%     79.12% # Class of executed instruction
system.cpu0.op_class::SimdFloatMult                 0      0.00%     79.12% # Class of executed instruction
system.cpu0.op_class::SimdFloatMultAcc              0      0.00%     79.12% # Class of executed instruction
system.cpu0.op_class::SimdFloatSqrt                 0      0.00%     79.12% # Class of executed instruction
system.cpu0.op_class::MemRead                33917677     16.66%     95.78% # Class of executed instruction
system.cpu0.op_class::MemWrite                8580284      4.22%    100.00% # Class of executed instruction
system.cpu0.op_class::IprAccess                     0      0.00%    100.00% # Class of executed instruction
system.cpu0.op_class::InstPrefetch                  0      0.00%    100.00% # Class of executed instruction
system.cpu0.op_class::total                 203547815                       # Class of executed instruction
system.cpu1.apic_clk_domain.clock                8000                       # Clock period in ticks
system.cpu1.numCycles                      1719942481                       # number of cpu cycles simulated
system.cpu1.numWorkItemsStarted                     0                       # number of work items this cpu started
system.cpu1.numWorkItemsCompleted                   0                       # number of work items this cpu completed
system.cpu1.kern.inst.arm                           0                       # number of arm instructions executed
system.cpu1.kern.inst.quiesce                       0                       # number of quiesce instructions executed
system.cpu1.committedInsts                    2416084                       # Number of instructions committed
system.cpu1.committedOps                      4905679                       # Number of ops (including micro ops) committed
system.cpu1.num_int_alu_accesses              4824064                       # Number of integer alu accesses
system.cpu1.num_fp_alu_accesses                    68                       # Number of float alu accesses
system.cpu1.num_func_calls                     115346                       # number of times a function call or return occured
system.cpu1.num_conditional_control_insts       426455                       # number of instructions that are conditional controls
system.cpu1.num_int_insts                     4824064                       # number of integer instructions
system.cpu1.num_fp_insts                           68                       # number of float instructions
system.cpu1.num_int_register_reads            9389332                       # number of times the integer registers were read
system.cpu1.num_int_register_writes           3961047                       # number of times the integer registers were written
system.cpu1.num_fp_register_reads                  70                       # number of times the floating registers were read
system.cpu1.num_fp_register_writes                 62                       # number of times the floating registers were written
system.cpu1.num_cc_register_reads             3136210                       # number of times the CC registers were read
system.cpu1.num_cc_register_writes            1688868                       # number of times the CC registers were written
system.cpu1.num_mem_refs                       968252                       # number of memory refs
system.cpu1.num_load_insts                     620012                       # Number of load instructions
system.cpu1.num_store_insts                    348240                       # Number of store instructions
system.cpu1.num_idle_cycles              1704383621.073622                       # Number of idle cycles
system.cpu1.num_busy_cycles              15558859.926378                       # Number of busy cycles
system.cpu1.not_idle_fraction                0.009046                       # Percentage of non-idle cycles
system.cpu1.idle_fraction                    0.990954                       # Percentage of idle cycles
system.cpu1.Branches                           579610                       # Number of branches fetched
system.cpu1.op_class::No_OpClass                49344      1.01%      1.01% # Class of executed instruction
system.cpu1.op_class::IntAlu                  3870699     78.89%     79.90% # Class of executed instruction
system.cpu1.op_class::IntMult                    7811      0.16%     80.06% # Class of executed instruction
system.cpu1.op_class::IntDiv                    10110      0.21%     80.26% # Class of executed instruction
system.cpu1.op_class::FloatAdd                     24      0.00%     80.26% # Class of executed instruction
system.cpu1.op_class::FloatCmp                      0      0.00%     80.26% # Class of executed instruction
system.cpu1.op_class::FloatCvt                      0      0.00%     80.26% # Class of executed instruction
system.cpu1.op_class::FloatMult                     0      0.00%     80.26% # Class of executed instruction
system.cpu1.op_class::FloatDiv                      0      0.00%     80.26% # Class of executed instruction
system.cpu1.op_class::FloatSqrt                     0      0.00%     80.26% # Class of executed instruction
system.cpu1.op_class::SimdAdd                       0      0.00%     80.26% # Class of executed instruction
system.cpu1.op_class::SimdAddAcc                    0      0.00%     80.26% # Class of executed instruction
system.cpu1.op_class::SimdAlu                       0      0.00%     80.26% # Class of executed instruction
system.cpu1.op_class::SimdCmp                       0      0.00%     80.26% # Class of executed instruction
system.cpu1.op_class::SimdCvt                       0      0.00%     80.26% # Class of executed instruction
system.cpu1.op_class::SimdMisc                      0      0.00%     80.26% # Class of executed instruction
system.cpu1.op_class::SimdMult                      0      0.00%     80.26% # Class of executed instruction
system.cpu1.op_class::SimdMultAcc                   0      0.00%     80.26% # Class of executed instruction
system.cpu1.op_class::SimdShift                     0      0.00%     80.26% # Class of executed instruction
system.cpu1.op_class::SimdShiftAcc                  0      0.00%     80.26% # Class of executed instruction
system.cpu1.op_class::SimdSqrt                      0      0.00%     80.26% # Class of executed instruction
system.cpu1.op_class::SimdFloatAdd                  0      0.00%     80.26% # Class of executed instruction
system.cpu1.op_class::SimdFloatAlu                  0      0.00%     80.26% # Class of executed instruction
system.cpu1.op_class::SimdFloatCmp                  0      0.00%     80.26% # Class of executed instruction
system.cpu1.op_class::SimdFloatCvt                  0      0.00%     80.26% # Class of executed instruction
system.cpu1.op_class::SimdFloatDiv                  0      0.00%     80.26% # Class of executed instruction
system.cpu1.op_class::SimdFloatMisc                 0      0.00%     80.26% # Class of executed instruction
system.cpu1.op_class::SimdFloatMult                 0      0.00%     80.26% # Class of executed instruction
system.cpu1.op_class::SimdFloatMultAcc              0      0.00%     80.26% # Class of executed instruction
system.cpu1.op_class::SimdFloatSqrt                 0      0.00%     80.26% # Class of executed instruction
system.cpu1.op_class::MemRead                  620012     12.64%     92.90% # Class of executed instruction
system.cpu1.op_class::MemWrite                 348240      7.10%    100.00% # Class of executed instruction
system.cpu1.op_class::IprAccess                     0      0.00%    100.00% # Class of executed instruction
system.cpu1.op_class::InstPrefetch                  0      0.00%    100.00% # Class of executed instruction
system.cpu1.op_class::total                   4906240                       # Class of executed instruction
system.cpu2.apic_clk_domain.clock                8000                       # Clock period in ticks
system.cpu2.numCycles                      1721571776                       # number of cpu cycles simulated
system.cpu2.numWorkItemsStarted                     0                       # number of work items this cpu started
system.cpu2.numWorkItemsCompleted                   0                       # number of work items this cpu completed
system.cpu2.kern.inst.arm                           0                       # number of arm instructions executed
system.cpu2.kern.inst.quiesce                       0                       # number of quiesce instructions executed
system.cpu2.committedInsts                  149140494                       # Number of instructions committed
system.cpu2.committedOps                    247044047                       # Number of ops (including micro ops) committed
system.cpu2.num_int_alu_accesses            196031045                       # Number of integer alu accesses
system.cpu2.num_fp_alu_accesses              58126292                       # Number of float alu accesses
system.cpu2.num_func_calls                    3129384                       # number of times a function call or return occured
system.cpu2.num_conditional_control_insts      9689621                       # number of instructions that are conditional controls
system.cpu2.num_int_insts                   196031045                       # number of integer instructions
system.cpu2.num_fp_insts                     58126292                       # number of float instructions
system.cpu2.num_int_register_reads          415065108                       # number of times the integer registers were read
system.cpu2.num_int_register_writes         156099033                       # number of times the integer registers were written
system.cpu2.num_fp_register_reads           107770796                       # number of times the floating registers were read
system.cpu2.num_fp_register_writes           55890855                       # number of times the floating registers were written
system.cpu2.num_cc_register_reads           101009678                       # number of times the CC registers were read
system.cpu2.num_cc_register_writes           85596865                       # number of times the CC registers were written
system.cpu2.num_mem_refs                     52044820                       # number of memory refs
system.cpu2.num_load_insts                   40997814                       # Number of load instructions
system.cpu2.num_store_insts                  11047006                       # Number of store instructions
system.cpu2.num_idle_cycles              776654860.164675                       # Number of idle cycles
system.cpu2.num_busy_cycles              944916915.835325                       # Number of busy cycles
system.cpu2.not_idle_fraction                0.548869                       # Percentage of non-idle cycles
system.cpu2.idle_fraction                    0.451131                       # Percentage of idle cycles
system.cpu2.Branches                         15595215                       # Number of branches fetched
system.cpu2.op_class::No_OpClass              2135231      0.86%      0.86% # Class of executed instruction
system.cpu2.op_class::IntAlu                143884983     58.24%     59.11% # Class of executed instruction
system.cpu2.op_class::IntMult                    3942      0.00%     59.11% # Class of executed instruction
system.cpu2.op_class::IntDiv                     4146      0.00%     59.11% # Class of executed instruction
system.cpu2.op_class::FloatAdd               48971018     19.82%     78.93% # Class of executed instruction
system.cpu2.op_class::FloatCmp                      0      0.00%     78.93% # Class of executed instruction
system.cpu2.op_class::FloatCvt                      0      0.00%     78.93% # Class of executed instruction
system.cpu2.op_class::FloatMult                     0      0.00%     78.93% # Class of executed instruction
system.cpu2.op_class::FloatDiv                      0      0.00%     78.93% # Class of executed instruction
system.cpu2.op_class::FloatSqrt                     0      0.00%     78.93% # Class of executed instruction
system.cpu2.op_class::SimdAdd                       0      0.00%     78.93% # Class of executed instruction
system.cpu2.op_class::SimdAddAcc                    0      0.00%     78.93% # Class of executed instruction
system.cpu2.op_class::SimdAlu                       0      0.00%     78.93% # Class of executed instruction
system.cpu2.op_class::SimdCmp                       0      0.00%     78.93% # Class of executed instruction
system.cpu2.op_class::SimdCvt                       0      0.00%     78.93% # Class of executed instruction
system.cpu2.op_class::SimdMisc                      0      0.00%     78.93% # Class of executed instruction
system.cpu2.op_class::SimdMult                      0      0.00%     78.93% # Class of executed instruction
system.cpu2.op_class::SimdMultAcc                   0      0.00%     78.93% # Class of executed instruction
system.cpu2.op_class::SimdShift                     0      0.00%     78.93% # Class of executed instruction
system.cpu2.op_class::SimdShiftAcc                  0      0.00%     78.93% # Class of executed instruction
system.cpu2.op_class::SimdSqrt                      0      0.00%     78.93% # Class of executed instruction
system.cpu2.op_class::SimdFloatAdd                  0      0.00%     78.93% # Class of executed instruction
system.cpu2.op_class::SimdFloatAlu                  0      0.00%     78.93% # Class of executed instruction
system.cpu2.op_class::SimdFloatCmp                  0      0.00%     78.93% # Class of executed instruction
system.cpu2.op_class::SimdFloatCvt                  0      0.00%     78.93% # Class of executed instruction
system.cpu2.op_class::SimdFloatDiv                  0      0.00%     78.93% # Class of executed instruction
system.cpu2.op_class::SimdFloatMisc                 0      0.00%     78.93% # Class of executed instruction
system.cpu2.op_class::SimdFloatMult                 0      0.00%     78.93% # Class of executed instruction
system.cpu2.op_class::SimdFloatMultAcc              0      0.00%     78.93% # Class of executed instruction
system.cpu2.op_class::SimdFloatSqrt                 0      0.00%     78.93% # Class of executed instruction
system.cpu2.op_class::MemRead                40997814     16.60%     95.53% # Class of executed instruction
system.cpu2.op_class::MemWrite               11047006      4.47%    100.00% # Class of executed instruction
system.cpu2.op_class::IprAccess                     0      0.00%    100.00% # Class of executed instruction
system.cpu2.op_class::InstPrefetch                  0      0.00%    100.00% # Class of executed instruction
system.cpu2.op_class::total                 247044140                       # Class of executed instruction
system.cpu3.apic_clk_domain.clock                8000                       # Clock period in ticks
system.cpu3.numCycles                      1728495036                       # number of cpu cycles simulated
system.cpu3.numWorkItemsStarted                     0                       # number of work items this cpu started
system.cpu3.numWorkItemsCompleted                   0                       # number of work items this cpu completed
system.cpu3.kern.inst.arm                           0                       # number of arm instructions executed
system.cpu3.kern.inst.quiesce                       0                       # number of quiesce instructions executed
system.cpu3.committedInsts                     962837                       # Number of instructions committed
system.cpu3.committedOps                      2001325                       # Number of ops (including micro ops) committed
system.cpu3.num_int_alu_accesses              1967770                       # Number of integer alu accesses
system.cpu3.num_fp_alu_accesses                   404                       # Number of float alu accesses
system.cpu3.num_func_calls                      50664                       # number of times a function call or return occured
system.cpu3.num_conditional_control_insts       175453                       # number of instructions that are conditional controls
system.cpu3.num_int_insts                     1967770                       # number of integer instructions
system.cpu3.num_fp_insts                          404                       # number of float instructions
system.cpu3.num_int_register_reads            3826366                       # number of times the integer registers were read
system.cpu3.num_int_register_writes           1605726                       # number of times the integer registers were written
system.cpu3.num_fp_register_reads                 712                       # number of times the floating registers were read
system.cpu3.num_fp_register_writes                364                       # number of times the floating registers were written
system.cpu3.num_cc_register_reads             1279380                       # number of times the CC registers were read
system.cpu3.num_cc_register_writes             652577                       # number of times the CC registers were written
system.cpu3.num_mem_refs                       419775                       # number of memory refs
system.cpu3.num_load_insts                     262443                       # Number of load instructions
system.cpu3.num_store_insts                    157332                       # Number of store instructions
system.cpu3.num_idle_cycles              1720972137.607021                       # Number of idle cycles
system.cpu3.num_busy_cycles              7522898.392979                       # Number of busy cycles
system.cpu3.not_idle_fraction                0.004352                       # Percentage of non-idle cycles
system.cpu3.idle_fraction                    0.995648                       # Percentage of idle cycles
system.cpu3.Branches                           241452                       # Number of branches fetched
system.cpu3.op_class::No_OpClass                23368      1.17%      1.17% # Class of executed instruction
system.cpu3.op_class::IntAlu                  1546805     77.29%     78.46% # Class of executed instruction
system.cpu3.op_class::IntMult                    3902      0.19%     78.65% # Class of executed instruction
system.cpu3.op_class::IntDiv                     7189      0.36%     79.01% # Class of executed instruction
system.cpu3.op_class::FloatAdd                    320      0.02%     79.03% # Class of executed instruction
system.cpu3.op_class::FloatCmp                      0      0.00%     79.03% # Class of executed instruction
system.cpu3.op_class::FloatCvt                      0      0.00%     79.03% # Class of executed instruction
system.cpu3.op_class::FloatMult                     0      0.00%     79.03% # Class of executed instruction
system.cpu3.op_class::FloatDiv                      0      0.00%     79.03% # Class of executed instruction
system.cpu3.op_class::FloatSqrt                     0      0.00%     79.03% # Class of executed instruction
system.cpu3.op_class::SimdAdd                       0      0.00%     79.03% # Class of executed instruction
system.cpu3.op_class::SimdAddAcc                    0      0.00%     79.03% # Class of executed instruction
system.cpu3.op_class::SimdAlu                       0      0.00%     79.03% # Class of executed instruction
system.cpu3.op_class::SimdCmp                       0      0.00%     79.03% # Class of executed instruction
system.cpu3.op_class::SimdCvt                       0      0.00%     79.03% # Class of executed instruction
system.cpu3.op_class::SimdMisc                      0      0.00%     79.03% # Class of executed instruction
system.cpu3.op_class::SimdMult                      0      0.00%     79.03% # Class of executed instruction
system.cpu3.op_class::SimdMultAcc                   0      0.00%     79.03% # Class of executed instruction
system.cpu3.op_class::SimdShift                     0      0.00%     79.03% # Class of executed instruction
system.cpu3.op_class::SimdShiftAcc                  0      0.00%     79.03% # Class of executed instruction
system.cpu3.op_class::SimdSqrt                      0      0.00%     79.03% # Class of executed instruction
system.cpu3.op_class::SimdFloatAdd                  0      0.00%     79.03% # Class of executed instruction
system.cpu3.op_class::SimdFloatAlu                  0      0.00%     79.03% # Class of executed instruction
system.cpu3.op_class::SimdFloatCmp                  0      0.00%     79.03% # Class of executed instruction
system.cpu3.op_class::SimdFloatCvt                  0      0.00%     79.03% # Class of executed instruction
system.cpu3.op_class::SimdFloatDiv                  0      0.00%     79.03% # Class of executed instruction
system.cpu3.op_class::SimdFloatMisc                 0      0.00%     79.03% # Class of executed instruction
system.cpu3.op_class::SimdFloatMult                 0      0.00%     79.03% # Class of executed instruction
system.cpu3.op_class::SimdFloatMultAcc              0      0.00%     79.03% # Class of executed instruction
system.cpu3.op_class::SimdFloatSqrt                 0      0.00%     79.03% # Class of executed instruction
system.cpu3.op_class::MemRead                  262443     13.11%     92.14% # Class of executed instruction
system.cpu3.op_class::MemWrite                 157332      7.86%    100.00% # Class of executed instruction
system.cpu3.op_class::IprAccess                     0      0.00%    100.00% # Class of executed instruction
system.cpu3.op_class::InstPrefetch                  0      0.00%    100.00% # Class of executed instruction
system.cpu3.op_class::total                   2001359                       # Class of executed instruction
system.iobus.trans_dist::ReadReq                  566                       # Transaction distribution
system.iobus.trans_dist::ReadResp                 566                       # Transaction distribution
system.iobus.trans_dist::WriteReq                1899                       # Transaction distribution
system.iobus.trans_dist::WriteResp               1899                       # Transaction distribution
system.iobus.trans_dist::MessageReq                78                       # Transaction distribution
system.iobus.trans_dist::MessageResp               78                       # Transaction distribution
system.iobus.pkt_count_system.pc.south_bridge.io_apic.int_master::system.ruby.l1_cntrl0.sequencer.pio-slave-port           32                       # Packet count per connected master and slave (bytes)
system.iobus.pkt_count_system.pc.south_bridge.io_apic.int_master::system.ruby.l1_cntrl1.sequencer.pio-slave-port           32                       # Packet count per connected master and slave (bytes)
system.iobus.pkt_count_system.pc.south_bridge.io_apic.int_master::system.ruby.l1_cntrl2.sequencer.pio-slave-port           32                       # Packet count per connected master and slave (bytes)
system.iobus.pkt_count_system.pc.south_bridge.io_apic.int_master::system.ruby.l1_cntrl3.sequencer.pio-slave-port           32                       # Packet count per connected master and slave (bytes)
system.iobus.pkt_count_system.pc.south_bridge.io_apic.int_master::total          128                       # Packet count per connected master and slave (bytes)
system.iobus.pkt_count_system.ruby.l1_cntrl0.sequencer.mem-master-port::system.pc.south_bridge.ide.pio          656                       # Packet count per connected master and slave (bytes)
system.iobus.pkt_count_system.ruby.l1_cntrl0.sequencer.mem-master-port::system.pc.south_bridge.io_apic.pio            8                       # Packet count per connected master and slave (bytes)
system.iobus.pkt_count_system.ruby.l1_cntrl0.sequencer.mem-master-port::system.pc.com_1.pio            2                       # Packet count per connected master and slave (bytes)
system.iobus.pkt_count_system.ruby.l1_cntrl0.sequencer.mem-master-port::system.ruby.l1_cntrl0.sequencer.pio-slave-port          504                       # Packet count per connected master and slave (bytes)
system.iobus.pkt_count_system.ruby.l1_cntrl0.sequencer.mem-master-port::system.ruby.l1_cntrl1.sequencer.pio-slave-port            4                       # Packet count per connected master and slave (bytes)
system.iobus.pkt_count_system.ruby.l1_cntrl0.sequencer.mem-master-port::system.ruby.l1_cntrl2.sequencer.pio-slave-port            2                       # Packet count per connected master and slave (bytes)
system.iobus.pkt_count_system.ruby.l1_cntrl0.sequencer.mem-master-port::system.ruby.l1_cntrl3.sequencer.pio-slave-port            4                       # Packet count per connected master and slave (bytes)
system.iobus.pkt_count_system.ruby.l1_cntrl0.sequencer.mem-master-port::total         1180                       # Packet count per connected master and slave (bytes)
system.iobus.pkt_count_system.ruby.l1_cntrl1.sequencer.mem-master-port::system.pc.south_bridge.ide.pio          928                       # Packet count per connected master and slave (bytes)
system.iobus.pkt_count_system.ruby.l1_cntrl1.sequencer.mem-master-port::system.pc.south_bridge.io_apic.pio            8                       # Packet count per connected master and slave (bytes)
system.iobus.pkt_count_system.ruby.l1_cntrl1.sequencer.mem-master-port::system.ruby.l1_cntrl0.sequencer.pio-slave-port            2                       # Packet count per connected master and slave (bytes)
system.iobus.pkt_count_system.ruby.l1_cntrl1.sequencer.mem-master-port::system.ruby.l1_cntrl1.sequencer.pio-slave-port          482                       # Packet count per connected master and slave (bytes)
system.iobus.pkt_count_system.ruby.l1_cntrl1.sequencer.mem-master-port::system.ruby.l1_cntrl2.sequencer.pio-slave-port            2                       # Packet count per connected master and slave (bytes)
system.iobus.pkt_count_system.ruby.l1_cntrl1.sequencer.mem-master-port::total         1422                       # Packet count per connected master and slave (bytes)
system.iobus.pkt_count_system.ruby.l1_cntrl2.sequencer.mem-master-port::system.pc.south_bridge.ide.pio          588                       # Packet count per connected master and slave (bytes)
system.iobus.pkt_count_system.ruby.l1_cntrl2.sequencer.mem-master-port::system.pc.south_bridge.io_apic.pio            8                       # Packet count per connected master and slave (bytes)
system.iobus.pkt_count_system.ruby.l1_cntrl2.sequencer.mem-master-port::system.ruby.l1_cntrl0.sequencer.pio-slave-port            6                       # Packet count per connected master and slave (bytes)
system.iobus.pkt_count_system.ruby.l1_cntrl2.sequencer.mem-master-port::system.ruby.l1_cntrl1.sequencer.pio-slave-port            2                       # Packet count per connected master and slave (bytes)
system.iobus.pkt_count_system.ruby.l1_cntrl2.sequencer.mem-master-port::system.ruby.l1_cntrl2.sequencer.pio-slave-port          496                       # Packet count per connected master and slave (bytes)
system.iobus.pkt_count_system.ruby.l1_cntrl2.sequencer.mem-master-port::system.ruby.l1_cntrl3.sequencer.pio-slave-port            2                       # Packet count per connected master and slave (bytes)
system.iobus.pkt_count_system.ruby.l1_cntrl2.sequencer.mem-master-port::total         1102                       # Packet count per connected master and slave (bytes)
system.iobus.pkt_count_system.ruby.l1_cntrl3.sequencer.mem-master-port::system.pc.south_bridge.ide.pio          588                       # Packet count per connected master and slave (bytes)
system.iobus.pkt_count_system.ruby.l1_cntrl3.sequencer.mem-master-port::system.pc.south_bridge.io_apic.pio            6                       # Packet count per connected master and slave (bytes)
system.iobus.pkt_count_system.ruby.l1_cntrl3.sequencer.mem-master-port::system.pc.com_1.pio          174                       # Packet count per connected master and slave (bytes)
system.iobus.pkt_count_system.ruby.l1_cntrl3.sequencer.mem-master-port::system.ruby.l1_cntrl0.sequencer.pio-slave-port            2                       # Packet count per connected master and slave (bytes)
system.iobus.pkt_count_system.ruby.l1_cntrl3.sequencer.mem-master-port::system.ruby.l1_cntrl1.sequencer.pio-slave-port            2                       # Packet count per connected master and slave (bytes)
system.iobus.pkt_count_system.ruby.l1_cntrl3.sequencer.mem-master-port::system.ruby.l1_cntrl3.sequencer.pio-slave-port          482                       # Packet count per connected master and slave (bytes)
system.iobus.pkt_count_system.ruby.l1_cntrl3.sequencer.mem-master-port::total         1254                       # Packet count per connected master and slave (bytes)
system.iobus.pkt_count::total                    5086                       # Packet count per connected master and slave (bytes)
system.iobus.pkt_size_system.pc.south_bridge.io_apic.int_master::system.ruby.l1_cntrl0.sequencer.pio-slave-port           64                       # Cumulative packet size per connected master and slave (bytes)
system.iobus.pkt_size_system.pc.south_bridge.io_apic.int_master::system.ruby.l1_cntrl1.sequencer.pio-slave-port           64                       # Cumulative packet size per connected master and slave (bytes)
system.iobus.pkt_size_system.pc.south_bridge.io_apic.int_master::system.ruby.l1_cntrl2.sequencer.pio-slave-port           64                       # Cumulative packet size per connected master and slave (bytes)
system.iobus.pkt_size_system.pc.south_bridge.io_apic.int_master::system.ruby.l1_cntrl3.sequencer.pio-slave-port           64                       # Cumulative packet size per connected master and slave (bytes)
system.iobus.pkt_size_system.pc.south_bridge.io_apic.int_master::total          256                       # Cumulative packet size per connected master and slave (bytes)
system.iobus.pkt_size_system.ruby.l1_cntrl0.sequencer.mem-master-port::system.pc.south_bridge.ide.pio          370                       # Cumulative packet size per connected master and slave (bytes)
system.iobus.pkt_size_system.ruby.l1_cntrl0.sequencer.mem-master-port::system.pc.south_bridge.io_apic.pio           16                       # Cumulative packet size per connected master and slave (bytes)
system.iobus.pkt_size_system.ruby.l1_cntrl0.sequencer.mem-master-port::system.pc.com_1.pio            1                       # Cumulative packet size per connected master and slave (bytes)
system.iobus.pkt_size_system.ruby.l1_cntrl0.sequencer.mem-master-port::system.ruby.l1_cntrl0.sequencer.pio-slave-port         1008                       # Cumulative packet size per connected master and slave (bytes)
system.iobus.pkt_size_system.ruby.l1_cntrl0.sequencer.mem-master-port::system.ruby.l1_cntrl1.sequencer.pio-slave-port            8                       # Cumulative packet size per connected master and slave (bytes)
system.iobus.pkt_size_system.ruby.l1_cntrl0.sequencer.mem-master-port::system.ruby.l1_cntrl2.sequencer.pio-slave-port            4                       # Cumulative packet size per connected master and slave (bytes)
system.iobus.pkt_size_system.ruby.l1_cntrl0.sequencer.mem-master-port::system.ruby.l1_cntrl3.sequencer.pio-slave-port            8                       # Cumulative packet size per connected master and slave (bytes)
system.iobus.pkt_size_system.ruby.l1_cntrl0.sequencer.mem-master-port::total         1415                       # Cumulative packet size per connected master and slave (bytes)
system.iobus.pkt_size_system.ruby.l1_cntrl1.sequencer.mem-master-port::system.pc.south_bridge.ide.pio          530                       # Cumulative packet size per connected master and slave (bytes)
system.iobus.pkt_size_system.ruby.l1_cntrl1.sequencer.mem-master-port::system.pc.south_bridge.io_apic.pio           16                       # Cumulative packet size per connected master and slave (bytes)
system.iobus.pkt_size_system.ruby.l1_cntrl1.sequencer.mem-master-port::system.ruby.l1_cntrl0.sequencer.pio-slave-port            4                       # Cumulative packet size per connected master and slave (bytes)
system.iobus.pkt_size_system.ruby.l1_cntrl1.sequencer.mem-master-port::system.ruby.l1_cntrl1.sequencer.pio-slave-port          964                       # Cumulative packet size per connected master and slave (bytes)
system.iobus.pkt_size_system.ruby.l1_cntrl1.sequencer.mem-master-port::system.ruby.l1_cntrl2.sequencer.pio-slave-port            4                       # Cumulative packet size per connected master and slave (bytes)
system.iobus.pkt_size_system.ruby.l1_cntrl1.sequencer.mem-master-port::total         1518                       # Cumulative packet size per connected master and slave (bytes)
system.iobus.pkt_size_system.ruby.l1_cntrl2.sequencer.mem-master-port::system.pc.south_bridge.ide.pio          330                       # Cumulative packet size per connected master and slave (bytes)
system.iobus.pkt_size_system.ruby.l1_cntrl2.sequencer.mem-master-port::system.pc.south_bridge.io_apic.pio           16                       # Cumulative packet size per connected master and slave (bytes)
system.iobus.pkt_size_system.ruby.l1_cntrl2.sequencer.mem-master-port::system.ruby.l1_cntrl0.sequencer.pio-slave-port           12                       # Cumulative packet size per connected master and slave (bytes)
system.iobus.pkt_size_system.ruby.l1_cntrl2.sequencer.mem-master-port::system.ruby.l1_cntrl1.sequencer.pio-slave-port            4                       # Cumulative packet size per connected master and slave (bytes)
system.iobus.pkt_size_system.ruby.l1_cntrl2.sequencer.mem-master-port::system.ruby.l1_cntrl2.sequencer.pio-slave-port          992                       # Cumulative packet size per connected master and slave (bytes)
system.iobus.pkt_size_system.ruby.l1_cntrl2.sequencer.mem-master-port::system.ruby.l1_cntrl3.sequencer.pio-slave-port            4                       # Cumulative packet size per connected master and slave (bytes)
system.iobus.pkt_size_system.ruby.l1_cntrl2.sequencer.mem-master-port::total         1358                       # Cumulative packet size per connected master and slave (bytes)
system.iobus.pkt_size_system.ruby.l1_cntrl3.sequencer.mem-master-port::system.pc.south_bridge.ide.pio          330                       # Cumulative packet size per connected master and slave (bytes)
system.iobus.pkt_size_system.ruby.l1_cntrl3.sequencer.mem-master-port::system.pc.south_bridge.io_apic.pio           12                       # Cumulative packet size per connected master and slave (bytes)
system.iobus.pkt_size_system.ruby.l1_cntrl3.sequencer.mem-master-port::system.pc.com_1.pio           87                       # Cumulative packet size per connected master and slave (bytes)
system.iobus.pkt_size_system.ruby.l1_cntrl3.sequencer.mem-master-port::system.ruby.l1_cntrl0.sequencer.pio-slave-port            4                       # Cumulative packet size per connected master and slave (bytes)
system.iobus.pkt_size_system.ruby.l1_cntrl3.sequencer.mem-master-port::system.ruby.l1_cntrl1.sequencer.pio-slave-port            4                       # Cumulative packet size per connected master and slave (bytes)
system.iobus.pkt_size_system.ruby.l1_cntrl3.sequencer.mem-master-port::system.ruby.l1_cntrl3.sequencer.pio-slave-port          964                       # Cumulative packet size per connected master and slave (bytes)
system.iobus.pkt_size_system.ruby.l1_cntrl3.sequencer.mem-master-port::total         1401                       # Cumulative packet size per connected master and slave (bytes)
system.iobus.pkt_size::total                     5948                       # Cumulative packet size per connected master and slave (bytes)
system.iobus.reqLayer2.occupancy              2404500                       # Layer occupancy (ticks)
system.iobus.reqLayer2.utilization                0.0                       # Layer utilization (%)
system.iobus.reqLayer8.occupancy                27496                       # Layer occupancy (ticks)
system.iobus.reqLayer8.utilization                0.0                       # Layer utilization (%)
system.iobus.reqLayer12.occupancy              112000                       # Layer occupancy (ticks)
system.iobus.reqLayer12.utilization               0.0                       # Layer utilization (%)
system.iobus.reqLayer17.occupancy              666373                       # Layer occupancy (ticks)
system.iobus.reqLayer17.utilization               0.0                       # Layer utilization (%)
system.iobus.reqLayer18.occupancy              590484                       # Layer occupancy (ticks)
system.iobus.reqLayer18.utilization               0.0                       # Layer utilization (%)
system.iobus.reqLayer19.occupancy              659364                       # Layer occupancy (ticks)
system.iobus.reqLayer19.utilization               0.0                       # Layer utilization (%)
system.iobus.reqLayer20.occupancy              588985                       # Layer occupancy (ticks)
system.iobus.reqLayer20.utilization               0.0                       # Layer utilization (%)
system.iobus.respLayer0.occupancy              112440                       # Layer occupancy (ticks)
system.iobus.respLayer0.utilization               0.0                       # Layer utilization (%)
system.iobus.respLayer2.occupancy              839000                       # Layer occupancy (ticks)
system.iobus.respLayer2.utilization               0.0                       # Layer utilization (%)
system.iobus.respLayer4.occupancy              983500                       # Layer occupancy (ticks)
system.iobus.respLayer4.utilization               0.0                       # Layer utilization (%)
system.iobus.respLayer6.occupancy              790000                       # Layer occupancy (ticks)
system.iobus.respLayer6.utilization               0.0                       # Layer utilization (%)
system.iobus.respLayer8.occupancy              923500                       # Layer occupancy (ticks)
system.iobus.respLayer8.utilization               0.0                       # Layer utilization (%)
system.pc.south_bridge.ide.disks.dma_read_full_pages          886                       # Number of full page size DMA reads (not PRD).
system.pc.south_bridge.ide.disks.dma_read_bytes      3629056                       # Number of bytes transfered via DMA reads (not PRD).
system.pc.south_bridge.ide.disks.dma_read_txs          886                       # Number of DMA read transactions (not PRD).
[...]
system.ruby.DMA_Controller.BUSY_RD.Data::total        57231                      
system.ruby.DMA_Controller.BUSY_WR.Ack   |        3008    100.00%    100.00% |           0      0.00%    100.00%
system.ruby.DMA_Controller.BUSY_WR.Ack::total         3008                      
system.ruby.L1Cache_Controller.Load      |    40260807     31.58%     31.58% |     1291925      1.01%     32.59% |    85315210     66.92%     99.51% |      629244      0.49%    100.00%
system.ruby.L1Cache_Controller.Load::total    127497186                      
system.ruby.L1Cache_Controller.Ifetch    |   168205702     32.81%     32.81% |     7045634      1.37%     34.19% |   334279897     65.21%     99.40% |     3069484      0.60%    100.00%
system.ruby.L1Cache_Controller.Ifetch::total    512600717                      
system.ruby.L1Cache_Controller.Store     |    11190654     26.50%     26.50% |      955660      2.26%     28.76% |    29622242     70.15%     98.91% |      459869      1.09%    100.00%
system.ruby.L1Cache_Controller.Store::total     42228425                      
system.ruby.L1Cache_Controller.Inv       |       88046     27.47%     27.47% |       79246     24.73%     52.20% |       77762     24.27%     76.47% |       75410     23.53%    100.00%
system.ruby.L1Cache_Controller.Inv::total       320464                      
system.ruby.L1Cache_Controller.L1_Replacement |     3505218     26.00%     26.00% |      105658      0.78%     26.79% |     9809092     72.76%     99.55% |       60735      0.45%    100.00%
system.ruby.L1Cache_Controller.L1_Replacement::total     13480703                      
system.ruby.L1Cache_Controller.Fwd_GETX  |         651     18.24%     18.24% |         985     27.59%     45.83% |        1235     34.59%     80.42% |         699     19.58%    100.00%
system.ruby.L1Cache_Controller.Fwd_GETX::total         3570                      
system.ruby.L1Cache_Controller.Fwd_GETS  |        3427     16.86%     16.86% |        7552     37.16%     54.02% |        3399     16.72%     70.75% |        5945     29.25%    100.00%
system.ruby.L1Cache_Controller.Fwd_GETS::total        20323                      
system.ruby.L1Cache_Controller.Data      |         579     48.70%     48.70% |         144     12.11%     60.81% |         237     19.93%     80.74% |         229     19.26%    100.00%
system.ruby.L1Cache_Controller.Data::total         1189                      
system.ruby.L1Cache_Controller.Data_Exclusive |     2350375     25.13%     25.13% |       47195      0.50%     25.63% |     6930582     74.09%     99.73% |       25499      0.27%    100.00%
system.ruby.L1Cache_Controller.Data_Exclusive::total      9353651                      
system.ruby.L1Cache_Controller.DataS_fromL1 |        5651     27.81%     27.81% |        3622     17.82%     45.63% |        6537     32.17%     77.79% |        4513     22.21%    100.00%
system.ruby.L1Cache_Controller.DataS_fromL1::total        20323                      
system.ruby.L1Cache_Controller.Data_all_Acks |     1210868     27.90%     27.90% |      116602      2.69%     30.58% |     2921300     67.31%     97.89% |       91543      2.11%    100.00%
system.ruby.L1Cache_Controller.Data_all_Acks::total      4340313                      
system.ruby.L1Cache_Controller.Ack       |        7569     50.30%     50.30% |        2278     15.14%     65.44% |        2527     16.79%     82.24% |        2673     17.76%    100.00%
system.ruby.L1Cache_Controller.Ack::total        15047                      
system.ruby.L1Cache_Controller.Ack_all   |        4139     40.05%     40.05% |        1865     18.05%     58.10% |        2026     19.61%     77.70% |        2304     22.30%    100.00%
system.ruby.L1Cache_Controller.Ack_all::total        10334                      
system.ruby.L1Cache_Controller.WB_Ack    |     3389123     26.10%     26.10% |       41265      0.32%     26.41% |     9537518     73.44%     99.85% |       19139      0.15%    100.00%
system.ruby.L1Cache_Controller.WB_Ack::total     12987045                      
system.ruby.L1Cache_Controller.NP.Load   |     2409454     25.06%     25.06% |       39793      0.41%     25.47% |     7145801     74.32%     99.79% |       20369      0.21%    100.00%
system.ruby.L1Cache_Controller.NP.Load::total      9615417                      
system.ruby.L1Cache_Controller.NP.Ifetch |       45056     25.98%     25.98% |       52752     30.41%     56.39% |       44248     25.51%     81.90% |       31398     18.10%    100.00%
system.ruby.L1Cache_Controller.NP.Ifetch::total       173454                      
system.ruby.L1Cache_Controller.NP.Store  |     1050708     28.45%     28.45% |       13327      0.36%     28.82% |     2619043     70.93%     99.74% |        9492      0.26%    100.00%
system.ruby.L1Cache_Controller.NP.Store::total      3692570                      
system.ruby.L1Cache_Controller.NP.Inv    |       13589     30.60%     30.60% |        8933     20.11%     50.71% |       15942     35.90%     86.61% |        5947     13.39%    100.00%
system.ruby.L1Cache_Controller.NP.Inv::total        44411                      
system.ruby.L1Cache_Controller.I.Load    |       11675     22.92%     22.92% |       16179     31.76%     54.68% |        6880     13.51%     68.19% |       16205     31.81%    100.00%
system.ruby.L1Cache_Controller.I.Load::total        50939                      
system.ruby.L1Cache_Controller.I.Ifetch  |       43536     28.40%     28.40% |       35675     23.27%     51.68% |       40032     26.12%     77.79% |       34042     22.21%    100.00%
system.ruby.L1Cache_Controller.I.Ifetch::total       153285                      
system.ruby.L1Cache_Controller.I.Store   |        7044     23.63%     23.63% |        9837     33.00%     56.63% |        2652      8.90%     65.52% |       10278     34.48%    100.00%
system.ruby.L1Cache_Controller.I.Store::total        29811                      
system.ruby.L1Cache_Controller.I.L1_Replacement |       12468     27.75%     27.75% |        9418     20.96%     48.71% |       13047     29.04%     77.74% |       10001     22.26%    100.00%
system.ruby.L1Cache_Controller.I.L1_Replacement::total        44934                      
system.ruby.L1Cache_Controller.S.Load    |     2921566     34.23%     34.23% |      127316      1.49%     35.72% |     5394594     63.20%     98.92% |       92037      1.08%    100.00%
system.ruby.L1Cache_Controller.S.Load::total      8535513                      
system.ruby.L1Cache_Controller.S.Ifetch  |   168117110     32.82%     32.82% |     6957204      1.36%     34.18% |   334195617     65.24%     99.41% |     3004044      0.59%    100.00%
system.ruby.L1Cache_Controller.S.Ifetch::total    512273975                      
system.ruby.L1Cache_Controller.S.Store   |        3560     38.93%     38.93% |        1721     18.82%     57.75% |        1789     19.56%     77.31% |        2075     22.69%    100.00%
system.ruby.L1Cache_Controller.S.Store::total         9145                      
system.ruby.L1Cache_Controller.S.Inv     |       55631     27.54%     27.54% |       48234     23.88%     51.43% |       49399     24.46%     75.88% |       48706     24.12%    100.00%
system.ruby.L1Cache_Controller.S.Inv::total       201970                      
system.ruby.L1Cache_Controller.S.L1_Replacement |      103627     23.09%     23.09% |       54975     12.25%     35.35% |      258527     57.61%     92.96% |       31595      7.04%    100.00%
system.ruby.L1Cache_Controller.S.L1_Replacement::total       448724                      
system.ruby.L1Cache_Controller.E.Load    |    27525112     33.63%     33.63% |      286532      0.35%     33.98% |    53908328     65.87%     99.85% |      122568      0.15%    100.00%
system.ruby.L1Cache_Controller.E.Load::total     81842540                      
system.ruby.L1Cache_Controller.E.Store   |       82234      7.06%      7.06% |       16350      1.40%      8.46% |     1060397     90.98%     99.44% |        6521      0.56%    100.00%
system.ruby.L1Cache_Controller.E.Store::total      1165502                      
system.ruby.L1Cache_Controller.E.Inv     |        7236     26.05%     26.05% |        8154     29.36%     55.41% |        5970     21.49%     76.90% |        6416     23.10%    100.00%
system.ruby.L1Cache_Controller.E.Inv::total        27776                      
system.ruby.L1Cache_Controller.E.L1_Replacement |     2259583     27.74%     27.74% |       16440      0.20%     27.94% |     5862135     71.96%     99.90% |        8022      0.10%    100.00%
system.ruby.L1Cache_Controller.E.L1_Replacement::total      8146180                      
system.ruby.L1Cache_Controller.E.Fwd_GETX |          94      6.59%      6.59% |         513     35.95%     42.54% |         674     47.23%     89.77% |         146     10.23%    100.00%
system.ruby.L1Cache_Controller.E.Fwd_GETX::total         1427                      
system.ruby.L1Cache_Controller.E.Fwd_GETS |        1189      9.45%      9.45% |        5771     45.85%     55.29% |        1672     13.28%     68.57% |        3956     31.43%    100.00%
system.ruby.L1Cache_Controller.E.Fwd_GETS::total        12588                      
system.ruby.L1Cache_Controller.M.Load    |     7393000     26.93%     26.93% |      822105      2.99%     29.92% |    18859607     68.70%     98.62% |      378065      1.38%    100.00%
system.ruby.L1Cache_Controller.M.Load::total     27452777                      
system.ruby.L1Cache_Controller.M.Store   |    10047108     26.91%     26.91% |      914425      2.45%     29.36% |    25938361     69.48%     98.84% |      431503      1.16%    100.00%
system.ruby.L1Cache_Controller.M.Store::total     37331397                      
system.ruby.L1Cache_Controller.M.Inv     |       11590     25.03%     25.03% |       13925     30.07%     55.10% |        6450     13.93%     69.03% |       14341     30.97%    100.00%
system.ruby.L1Cache_Controller.M.Inv::total        46306                      
system.ruby.L1Cache_Controller.M.L1_Replacement |     1129540     23.33%     23.33% |       24825      0.51%     23.85% |     3675383     75.92%     99.77% |       11117      0.23%    100.00%
system.ruby.L1Cache_Controller.M.L1_Replacement::total      4840865                      
system.ruby.L1Cache_Controller.M.Fwd_GETX |         557     25.99%     25.99% |         472     22.03%     48.02% |         561     26.18%     74.20% |         553     25.80%    100.00%
system.ruby.L1Cache_Controller.M.Fwd_GETX::total         2143                      
system.ruby.L1Cache_Controller.M.Fwd_GETS |        2238     28.93%     28.93% |        1781     23.03%     51.96% |        1727     22.33%     74.29% |        1989     25.71%    100.00%
system.ruby.L1Cache_Controller.M.Fwd_GETS::total         7735                      
system.ruby.L1Cache_Controller.IS.Data_Exclusive |     2350375     25.13%     25.13% |       47195      0.50%     25.63% |     6930582     74.09%     99.73% |       25499      0.27%    100.00%
system.ruby.L1Cache_Controller.IS.Data_Exclusive::total      9353651                      
system.ruby.L1Cache_Controller.IS.DataS_fromL1 |        5651     27.81%     27.81% |        3622     17.82%     45.63% |        6537     32.17%     77.79% |        4513     22.21%    100.00%
system.ruby.L1Cache_Controller.IS.DataS_fromL1::total        20323                      
system.ruby.L1Cache_Controller.IS.Data_all_Acks |      153695     24.82%     24.82% |       93582     15.12%     39.94% |      299842     48.43%     88.37% |       72002     11.63%    100.00%
system.ruby.L1Cache_Controller.IS.Data_all_Acks::total       619121                      
system.ruby.L1Cache_Controller.IM.Data   |         579     48.70%     48.70% |         144     12.11%     60.81% |         237     19.93%     80.74% |         229     19.26%    100.00%
system.ruby.L1Cache_Controller.IM.Data::total         1189                      
system.ruby.L1Cache_Controller.IM.Data_all_Acks |     1057173     28.41%     28.41% |       23020      0.62%     29.03% |     2621458     70.45%     99.47% |       19541      0.53%    100.00%
system.ruby.L1Cache_Controller.IM.Data_all_Acks::total      3721192                      
system.ruby.L1Cache_Controller.IM.Ack    |           1    100.00%    100.00% |           0      0.00%    100.00% |           0      0.00%    100.00% |           0      0.00%    100.00%
system.ruby.L1Cache_Controller.IM.Ack::total            1                      
system.ruby.L1Cache_Controller.SM.Ack    |        7568     50.30%     50.30% |        2278     15.14%     65.44% |        2527     16.80%     82.23% |        2673     17.77%    100.00%
system.ruby.L1Cache_Controller.SM.Ack::total        15046                      
system.ruby.L1Cache_Controller.SM.Ack_all |        4139     40.05%     40.05% |        1865     18.05%     58.10% |        2026     19.61%     77.70% |        2304     22.30%    100.00%
system.ruby.L1Cache_Controller.SM.Ack_all::total        10334                      
system.ruby.L1Cache_Controller.M_I.Ifetch |           0      0.00%      0.00% |           3    100.00%    100.00% |           0      0.00%    100.00% |           0      0.00%    100.00%
system.ruby.L1Cache_Controller.M_I.Ifetch::total            3                      
system.ruby.L1Cache_Controller.M_I.Inv   |           0      0.00%      0.00% |           0      0.00%      0.00% |           1    100.00%    100.00% |           0      0.00%    100.00%
system.ruby.L1Cache_Controller.M_I.Inv::total            1                      
system.ruby.L1Cache_Controller.M_I.WB_Ack |     3389123     26.10%     26.10% |       41265      0.32%     26.41% |     9537517     73.44%     99.85% |       19139      0.15%    100.00%
system.ruby.L1Cache_Controller.M_I.WB_Ack::total     12987044                      
system.ruby.L1Cache_Controller.SINK_WB_ACK.WB_Ack |           0      0.00%      0.00% |           0      0.00%      0.00% |           1    100.00%    100.00% |           0      0.00%    100.00%
system.ruby.L1Cache_Controller.SINK_WB_ACK.WB_Ack::total            1                      
system.ruby.L2Cache_Controller.L1_GET_INSTR       326743      0.00%      0.00%
system.ruby.L2Cache_Controller.L1_GETS        9666398      0.00%      0.00%
system.ruby.L2Cache_Controller.L1_GETX        3722384      0.00%      0.00%
system.ruby.L2Cache_Controller.L1_UPGRADE         9145      0.00%      0.00%
system.ruby.L2Cache_Controller.L1_PUTX       12987044      0.00%      0.00%
system.ruby.L2Cache_Controller.L1_PUTX_old            2      0.00%      0.00%
system.ruby.L2Cache_Controller.L2_Replacement      4308547      0.00%      0.00%
system.ruby.L2Cache_Controller.L2_Replacement_clean      4051377      0.00%      0.00%
system.ruby.L2Cache_Controller.Mem_Data       8361396      0.00%      0.00%
system.ruby.L2Cache_Controller.Mem_Ack        8360162      0.00%      0.00%
system.ruby.L2Cache_Controller.WB_Data          54042      0.00%      0.00%
system.ruby.L2Cache_Controller.WB_Data_clean        12588      0.00%      0.00%
system.ruby.L2Cache_Controller.Ack             113080      0.00%      0.00%
system.ruby.L2Cache_Controller.Ack_all         144841      0.00%      0.00%
system.ruby.L2Cache_Controller.Unblock          20323      0.00%      0.00%
system.ruby.L2Cache_Controller.Exclusive_Unblock     13085176      0.00%      0.00%
system.ruby.L2Cache_Controller.MEM_Inv            476      0.00%      0.00%
system.ruby.L2Cache_Controller.NP.L1_GET_INSTR       108591      0.00%      0.00%
system.ruby.L2Cache_Controller.NP.L1_GETS      4882279      0.00%      0.00%
system.ruby.L2Cache_Controller.NP.L1_GETX      3370526      0.00%      0.00%
system.ruby.L2Cache_Controller.NP.L1_PUTX_old            1      0.00%      0.00%
system.ruby.L2Cache_Controller.SS.L1_GET_INSTR       218130      0.00%      0.00%
system.ruby.L2Cache_Controller.SS.L1_GETS       292378      0.00%      0.00%
system.ruby.L2Cache_Controller.SS.L1_GETX         1190      0.00%      0.00%
system.ruby.L2Cache_Controller.SS.L1_UPGRADE         9145      0.00%      0.00%
system.ruby.L2Cache_Controller.SS.L2_Replacement         1755      0.00%      0.00%
system.ruby.L2Cache_Controller.SS.L2_Replacement_clean       115278      0.00%      0.00%
system.ruby.L2Cache_Controller.SS.MEM_Inv           32      0.00%      0.00%
system.ruby.L2Cache_Controller.M.L1_GET_INSTR           18      0.00%      0.00%
system.ruby.L2Cache_Controller.M.L1_GETS      4471374      0.00%      0.00%
system.ruby.L2Cache_Controller.M.L1_GETX       347095      0.00%      0.00%
system.ruby.L2Cache_Controller.M.L2_Replacement      4303643      0.00%      0.00%
system.ruby.L2Cache_Controller.M.L2_Replacement_clean      3865281      0.00%      0.00%
system.ruby.L2Cache_Controller.M.MEM_Inv           90      0.00%      0.00%
system.ruby.L2Cache_Controller.MT.L1_GETS        20323      0.00%      0.00%
system.ruby.L2Cache_Controller.MT.L1_GETX         3570      0.00%      0.00%
system.ruby.L2Cache_Controller.MT.L1_PUTX     12987044      0.00%      0.00%
system.ruby.L2Cache_Controller.MT.L2_Replacement         3149      0.00%      0.00%
system.ruby.L2Cache_Controller.MT.L2_Replacement_clean        70818      0.00%      0.00%
system.ruby.L2Cache_Controller.MT.MEM_Inv          116      0.00%      0.00%
system.ruby.L2Cache_Controller.M_I.L1_GET_INSTR            4      0.00%      0.00%
system.ruby.L2Cache_Controller.M_I.L1_GETS            3      0.00%      0.00%
system.ruby.L2Cache_Controller.M_I.L1_GETX            1      0.00%      0.00%
system.ruby.L2Cache_Controller.M_I.Mem_Ack      8360162      0.00%      0.00%
system.ruby.L2Cache_Controller.M_I.MEM_Inv           90      0.00%      0.00%
system.ruby.L2Cache_Controller.MT_I.WB_Data         2402      0.00%      0.00%
system.ruby.L2Cache_Controller.MT_I.Ack_all          863      0.00%      0.00%
system.ruby.L2Cache_Controller.MT_I.MEM_Inv          116      0.00%      0.00%
system.ruby.L2Cache_Controller.MCT_I.L1_PUTX_old            1      0.00%      0.00%
system.ruby.L2Cache_Controller.MCT_I.WB_Data        43905      0.00%      0.00%
system.ruby.L2Cache_Controller.MCT_I.Ack_all        26913      0.00%      0.00%
system.ruby.L2Cache_Controller.I_I.Ack         111014      0.00%      0.00%
system.ruby.L2Cache_Controller.I_I.Ack_all       115278      0.00%      0.00%
system.ruby.L2Cache_Controller.S_I.Ack           2066      0.00%      0.00%
system.ruby.L2Cache_Controller.S_I.Ack_all         1787      0.00%      0.00%
system.ruby.L2Cache_Controller.S_I.MEM_Inv           32      0.00%      0.00%
system.ruby.L2Cache_Controller.ISS.L1_GETS            2      0.00%      0.00%
system.ruby.L2Cache_Controller.ISS.Mem_Data      4882277      0.00%      0.00%
system.ruby.L2Cache_Controller.IS.Mem_Data       108593      0.00%      0.00%
system.ruby.L2Cache_Controller.IM.Mem_Data      3370526      0.00%      0.00%
system.ruby.L2Cache_Controller.SS_MB.L1_GETS           29      0.00%      0.00%
system.ruby.L2Cache_Controller.SS_MB.Exclusive_Unblock        10335      0.00%      0.00%
system.ruby.L2Cache_Controller.MT_MB.L1_GETS            7      0.00%      0.00%
system.ruby.L2Cache_Controller.MT_MB.L1_GETX            1      0.00%      0.00%
system.ruby.L2Cache_Controller.MT_MB.Exclusive_Unblock     13074841      0.00%      0.00%
system.ruby.L2Cache_Controller.MT_IIB.L1_GETS            3      0.00%      0.00%
system.ruby.L2Cache_Controller.MT_IIB.L1_GETX            1      0.00%      0.00%
system.ruby.L2Cache_Controller.MT_IIB.WB_Data         7715      0.00%      0.00%
system.ruby.L2Cache_Controller.MT_IIB.WB_Data_clean        12550      0.00%      0.00%
system.ruby.L2Cache_Controller.MT_IIB.Unblock           58      0.00%      0.00%
system.ruby.L2Cache_Controller.MT_IB.WB_Data           20      0.00%      0.00%
system.ruby.L2Cache_Controller.MT_IB.WB_Data_clean           38      0.00%      0.00%
system.ruby.L2Cache_Controller.MT_SB.Unblock        20265      0.00%      0.00%

---------- End Simulation Statistics   ----------
