
---------- Begin Simulation Statistics ----------
sim_seconds                                  2.317525                       # Number of seconds simulated
sim_ticks                                2317525255000                       # Number of ticks simulated
final_tick                               55142684987501                       # Number of ticks from beginning of simulation (restored from checkpoints and never reset)
sim_freq                                 1000000000000                       # Frequency of simulated ticks
host_inst_rate                                 132040                       # Simulator instruction rate (inst/s)
host_op_rate                                   239340                       # Simulator op (including micro ops) rate (op/s)
host_tick_rate                              233101592                       # Simulator tick rate (ticks/s)
host_mem_usage                                1854956                       # Number of bytes of host memory used
host_seconds                                  9942.13                       # Real time elapsed on the host
sim_insts                                  1312756441                       # Number of instructions simulated
sim_ops                                    2379548023                       # Number of ops (including micro ops) simulated
system.voltage_domain.voltage                       1                       # Voltage in Volts
system.clk_domain.clock                          1000                       # Clock period in ticks
system.mem_ctrls.bytes_read::ruby.dir_cntrl0     58424256                       # Number of bytes read from this memory
system.mem_ctrls.bytes_read::total           58424256                       # Number of bytes read from this memory
system.mem_ctrls.bytes_written::ruby.dir_cntrl0     36921664                       # Number of bytes written to this memory
system.mem_ctrls.bytes_written::total        36921664                       # Number of bytes written to this memory
system.mem_ctrls.num_reads::ruby.dir_cntrl0       912879                       # Number of read requests responded to by this memory
system.mem_ctrls.num_reads::total              912879                       # Number of read requests responded to by this memory
system.mem_ctrls.num_writes::ruby.dir_cntrl0       576901                       # Number of write requests responded to by this memory
system.mem_ctrls.num_writes::total             576901                       # Number of write requests responded to by this memory
system.mem_ctrls.bw_read::ruby.dir_cntrl0     25209760                       # Total read bandwidth from this memory (bytes/s)
system.mem_ctrls.bw_read::total              25209760                       # Total read bandwidth from this memory (bytes/s)
system.mem_ctrls.bw_write::ruby.dir_cntrl0     15931504                       # Write bandwidth from this memory (bytes/s)
system.mem_ctrls.bw_write::total             15931504                       # Write bandwidth from this memory (bytes/s)
system.mem_ctrls.bw_total::ruby.dir_cntrl0     41141265                       # Total bandwidth to/from this memory (bytes/s)
system.mem_ctrls.bw_total::total             41141265                       # Total bandwidth to/from this memory (bytes/s)
system.mem_ctrls.readReqs                      912879                       # Number of read requests accepted
system.mem_ctrls.writeReqs                     576901                       # Number of write requests accepted
system.mem_ctrls.readBursts                    912879                       # Number of DRAM read bursts, including those serviced by the write queue
system.mem_ctrls.writeBursts                   576901                       # Number of DRAM write bursts, including those merged in the write queue
system.mem_ctrls.bytesReadDRAM               58317696                       # Total number of bytes read from DRAM
system.mem_ctrls.bytesReadWrQ                  106560                       # Total number of bytes read from write queue
system.mem_ctrls.bytesWritten                36920384                       # Total number of bytes written to DRAM
system.mem_ctrls.bytesReadSys                58424256                       # Total read bytes from the system interface side
system.mem_ctrls.bytesWrittenSys             36921664                       # Total written bytes from the system interface side
system.mem_ctrls.servicedByWrQ                   1665                       # Number of DRAM read bursts serviced by the write queue
system.mem_ctrls.mergedWrBursts                     0                       # Number of DRAM write bursts merged with an existing one
system.mem_ctrls.neitherReadNorWriteReqs            0                       # Number of requests that are neither read nor write
system.mem_ctrls.perBankRdBursts::0             55714                       # Per bank write bursts
system.mem_ctrls.perBankRdBursts::1             58472                       # Per bank write bursts
system.mem_ctrls.perBankRdBursts::2             57029                       # Per bank write bursts
system.mem_ctrls.perBankRdBursts::3             55596                       # Per bank write bursts
system.mem_ctrls.perBankRdBursts::4             56561                       # Per bank write bursts
system.mem_ctrls.perBankRdBursts::5             57008                       # Per bank write bursts
system.mem_ctrls.perBankRdBursts::6             56810                       # Per bank write bursts
system.mem_ctrls.perBankRdBursts::7             56032                       # Per bank write bursts
system.mem_ctrls.perBankRdBursts::8             57844                       # Per bank write bursts
system.mem_ctrls.perBankRdBursts::9             57098                       # Per bank write bursts
system.mem_ctrls.perBankRdBursts::10            55125                       # Per bank write bursts
system.mem_ctrls.perBankRdBursts::11            57546                       # Per bank write bursts
system.mem_ctrls.perBankRdBursts::12            57251                       # Per bank write bursts
system.mem_ctrls.perBankRdBursts::13            57329                       # Per bank write bursts
system.mem_ctrls.perBankRdBursts::14            58446                       # Per bank write bursts
system.mem_ctrls.perBankRdBursts::15            57353                       # Per bank write bursts
system.mem_ctrls.perBankWrBursts::0             35483                       # Per bank write bursts
system.mem_ctrls.perBankWrBursts::1             37056                       # Per bank write bursts
system.mem_ctrls.perBankWrBursts::2             36204                       # Per bank write bursts
system.mem_ctrls.perBankWrBursts::3             35120                       # Per bank write bursts
system.mem_ctrls.perBankWrBursts::4             35654                       # Per bank write bursts
system.mem_ctrls.perBankWrBursts::5             35959                       # Per bank write bursts
system.mem_ctrls.perBankWrBursts::6             35988                       # Per bank write bursts
system.mem_ctrls.perBankWrBursts::7             35762                       # Per bank write bursts
system.mem_ctrls.perBankWrBursts::8             36796                       # Per bank write bursts
system.mem_ctrls.perBankWrBursts::9             35966                       # Per bank write bursts
system.mem_ctrls.perBankWrBursts::10            34933                       # Per bank write bursts
system.mem_ctrls.perBankWrBursts::11            36401                       # Per bank write bursts
system.mem_ctrls.perBankWrBursts::12            36191                       # Per bank write bursts
system.mem_ctrls.perBankWrBursts::13            36258                       # Per bank write bursts
system.mem_ctrls.perBankWrBursts::14            36847                       # Per bank write bursts
system.mem_ctrls.perBankWrBursts::15            36263                       # Per bank write bursts
system.mem_ctrls.numRdRetry                         0                       # Number of times read queue was full causing retry
system.mem_ctrls.numWrRetry                         0                       # Number of times write queue was full causing retry
system.mem_ctrls.totGap                  2317525190000                       # Total gap between requests
system.mem_ctrls.readPktSize::0                     0                       # Read request sizes (log2)
system.mem_ctrls.readPktSize::1                     0                       # Read request sizes (log2)
system.mem_ctrls.readPktSize::2                     0                       # Read request sizes (log2)
system.mem_ctrls.readPktSize::3                     0                       # Read request sizes (log2)
system.mem_ctrls.readPktSize::4                     0                       # Read request sizes (log2)
system.mem_ctrls.readPktSize::5                     0                       # Read request sizes (log2)
system.mem_ctrls.readPktSize::6                912879                       # Read request sizes (log2)
system.mem_ctrls.writePktSize::0                    0                       # Write request sizes (log2)
system.mem_ctrls.writePktSize::1                    0                       # Write request sizes (log2)
system.mem_ctrls.writePktSize::2                    0                       # Write request sizes (log2)
system.mem_ctrls.writePktSize::3                    0                       # Write request sizes (log2)
system.mem_ctrls.writePktSize::4                    0                       # Write request sizes (log2)
system.mem_ctrls.writePktSize::5                    0                       # Write request sizes (log2)
system.mem_ctrls.writePktSize::6               576901                       # Write request sizes (log2)
system.mem_ctrls.rdQLenPdf::0                  910773                       # What read queue length does an incoming req see
system.mem_ctrls.rdQLenPdf::1                     441                       # What read queue length does an incoming req see
system.mem_ctrls.rdQLenPdf::2                       0                       # What read queue length does an incoming req see
system.mem_ctrls.rdQLenPdf::3                       0                       # What read queue length does an incoming req see
system.mem_ctrls.rdQLenPdf::4                       0                       # What read queue length does an incoming req see
system.mem_ctrls.rdQLenPdf::5                       0                       # What read queue length does an incoming req see
system.mem_ctrls.rdQLenPdf::6                       0                       # What read queue length does an incoming req see
system.mem_ctrls.rdQLenPdf::7                       0                       # What read queue length does an incoming req see
system.mem_ctrls.rdQLenPdf::8                       0                       # What read queue length does an incoming req see
system.mem_ctrls.rdQLenPdf::9                       0                       # What read queue length does an incoming req see
system.mem_ctrls.rdQLenPdf::10                      0                       # What read queue length does an incoming req see
system.mem_ctrls.rdQLenPdf::11                      0                       # What read queue length does an incoming req see
system.mem_ctrls.rdQLenPdf::12                      0                       # What read queue length does an incoming req see
system.mem_ctrls.rdQLenPdf::13                      0                       # What read queue length does an incoming req see
system.mem_ctrls.rdQLenPdf::14                      0                       # What read queue length does an incoming req see
system.mem_ctrls.rdQLenPdf::15                      0                       # What read queue length does an incoming req see
system.mem_ctrls.rdQLenPdf::16                      0                       # What read queue length does an incoming req see
system.mem_ctrls.rdQLenPdf::17                      0                       # What read queue length does an incoming req see
system.mem_ctrls.rdQLenPdf::18                      0                       # What read queue length does an incoming req see
system.mem_ctrls.rdQLenPdf::19                      0                       # What read queue length does an incoming req see
system.mem_ctrls.rdQLenPdf::20                      0                       # What read queue length does an incoming req see
system.mem_ctrls.rdQLenPdf::21                      0                       # What read queue length does an incoming req see
system.mem_ctrls.rdQLenPdf::22                      0                       # What read queue length does an incoming req see
system.mem_ctrls.rdQLenPdf::23                      0                       # What read queue length does an incoming req see
system.mem_ctrls.rdQLenPdf::24                      0                       # What read queue length does an incoming req see
system.mem_ctrls.rdQLenPdf::25                      0                       # What read queue length does an incoming req see
system.mem_ctrls.rdQLenPdf::26                      0                       # What read queue length does an incoming req see
system.mem_ctrls.rdQLenPdf::27                      0                       # What read queue length does an incoming req see
system.mem_ctrls.rdQLenPdf::28                      0                       # What read queue length does an incoming req see
system.mem_ctrls.rdQLenPdf::29                      0                       # What read queue length does an incoming req see
system.mem_ctrls.rdQLenPdf::30                      0                       # What read queue length does an incoming req see
system.mem_ctrls.rdQLenPdf::31                      0                       # What read queue length does an incoming req see
system.mem_ctrls.wrQLenPdf::0                       0                       # What write queue length does an incoming req see
system.mem_ctrls.wrQLenPdf::1                       0                       # What write queue length does an incoming req see
system.mem_ctrls.wrQLenPdf::2                       1                       # What write queue length does an incoming req see
system.mem_ctrls.wrQLenPdf::3                       1                       # What write queue length does an incoming req see
system.mem_ctrls.wrQLenPdf::4                       1                       # What write queue length does an incoming req see
system.mem_ctrls.wrQLenPdf::5                       1                       # What write queue length does an incoming req see
system.mem_ctrls.wrQLenPdf::6                       1                       # What write queue length does an incoming req see
system.mem_ctrls.wrQLenPdf::7                       1                       # What write queue length does an incoming req see
system.mem_ctrls.wrQLenPdf::8                       1                       # What write queue length does an incoming req see
system.mem_ctrls.wrQLenPdf::9                       1                       # What write queue length does an incoming req see
system.mem_ctrls.wrQLenPdf::10                      1                       # What write queue length does an incoming req see
system.mem_ctrls.wrQLenPdf::11                      1                       # What write queue length does an incoming req see
system.mem_ctrls.wrQLenPdf::12                      1                       # What write queue length does an incoming req see
system.mem_ctrls.wrQLenPdf::13                      1                       # What write queue length does an incoming req see
system.mem_ctrls.wrQLenPdf::14                      1                       # What write queue length does an incoming req see
system.mem_ctrls.wrQLenPdf::15                  21659                       # What write queue length does an incoming req see
system.mem_ctrls.wrQLenPdf::16                  22759                       # What write queue length does an incoming req see
system.mem_ctrls.wrQLenPdf::17                  29014                       # What write queue length does an incoming req see
system.mem_ctrls.wrQLenPdf::18                  33597                       # What write queue length does an incoming req see
system.mem_ctrls.wrQLenPdf::19                  33918                       # What write queue length does an incoming req see
system.mem_ctrls.wrQLenPdf::20                  34275                       # What write queue length does an incoming req see
system.mem_ctrls.wrQLenPdf::21                  34150                       # What write queue length does an incoming req see
system.mem_ctrls.wrQLenPdf::22                  33703                       # What write queue length does an incoming req see
system.mem_ctrls.wrQLenPdf::23                  33612                       # What write queue length does an incoming req see
system.mem_ctrls.wrQLenPdf::24                  33448                       # What write queue length does an incoming req see
system.mem_ctrls.wrQLenPdf::25                  33373                       # What write queue length does an incoming req see
system.mem_ctrls.wrQLenPdf::26                  33434                       # What write queue length does an incoming req see
system.mem_ctrls.wrQLenPdf::27                  33510                       # What write queue length does an incoming req see
system.mem_ctrls.wrQLenPdf::28                  33386                       # What write queue length does an incoming req see
system.mem_ctrls.wrQLenPdf::29                  33374                       # What write queue length does an incoming req see
system.mem_ctrls.wrQLenPdf::30                  33201                       # What write queue length does an incoming req see
system.mem_ctrls.wrQLenPdf::31                  33188                       # What write queue length does an incoming req see
system.mem_ctrls.wrQLenPdf::32                  33199                       # What write queue length does an incoming req see
system.mem_ctrls.wrQLenPdf::33                     75                       # What write queue length does an incoming req see
system.mem_ctrls.wrQLenPdf::34                      9                       # What write queue length does an incoming req see
system.mem_ctrls.wrQLenPdf::35                      3                       # What write queue length does an incoming req see
system.mem_ctrls.wrQLenPdf::36                      1                       # What write queue length does an incoming req see
system.mem_ctrls.wrQLenPdf::37                      0                       # What write queue length does an incoming req see
system.mem_ctrls.wrQLenPdf::38                      0                       # What write queue length does an incoming req see
system.mem_ctrls.wrQLenPdf::39                      0                       # What write queue length does an incoming req see
system.mem_ctrls.wrQLenPdf::40                      0                       # What write queue length does an incoming req see
system.mem_ctrls.wrQLenPdf::41                      0                       # What write queue length does an incoming req see
system.mem_ctrls.wrQLenPdf::42                      0                       # What write queue length does an incoming req see
system.mem_ctrls.wrQLenPdf::43                      0                       # What write queue length does an incoming req see
system.mem_ctrls.wrQLenPdf::44                      0                       # What write queue length does an incoming req see
system.mem_ctrls.wrQLenPdf::45                      0                       # What write queue length does an incoming req see
system.mem_ctrls.wrQLenPdf::46                      0                       # What write queue length does an incoming req see
system.mem_ctrls.wrQLenPdf::47                      0                       # What write queue length does an incoming req see
system.mem_ctrls.wrQLenPdf::48                      0                       # What write queue length does an incoming req see
system.mem_ctrls.wrQLenPdf::49                      0                       # What write queue length does an incoming req see
system.mem_ctrls.wrQLenPdf::50                      0                       # What write queue length does an incoming req see
system.mem_ctrls.wrQLenPdf::51                      0                       # What write queue length does an incoming req see
system.mem_ctrls.wrQLenPdf::52                      0                       # What write queue length does an incoming req see
system.mem_ctrls.wrQLenPdf::53                      0                       # What write queue length does an incoming req see
system.mem_ctrls.wrQLenPdf::54                      0                       # What write queue length does an incoming req see
system.mem_ctrls.wrQLenPdf::55                      0                       # What write queue length does an incoming req see
system.mem_ctrls.wrQLenPdf::56                      0                       # What write queue length does an incoming req see
system.mem_ctrls.wrQLenPdf::57                      0                       # What write queue length does an incoming req see
system.mem_ctrls.wrQLenPdf::58                      0                       # What write queue length does an incoming req see
system.mem_ctrls.wrQLenPdf::59                      0                       # What write queue length does an incoming req see
system.mem_ctrls.wrQLenPdf::60                      0                       # What write queue length does an incoming req see
system.mem_ctrls.wrQLenPdf::61                      0                       # What write queue length does an incoming req see
system.mem_ctrls.wrQLenPdf::62                      0                       # What write queue length does an incoming req see
system.mem_ctrls.wrQLenPdf::63                      0                       # What write queue length does an incoming req see
system.mem_ctrls.bytesPerActivate::samples       617790                       # Bytes accessed per row activation
system.mem_ctrls.bytesPerActivate::mean    154.159517                       # Bytes accessed per row activation
system.mem_ctrls.bytesPerActivate::gmean   106.965091                       # Bytes accessed per row activation
system.mem_ctrls.bytesPerActivate::stdev   187.594372                       # Bytes accessed per row activation
system.mem_ctrls.bytesPerActivate::0-127       366448     59.32%     59.32% # Bytes accessed per row activation
system.mem_ctrls.bytesPerActivate::128-255       139698     22.61%     81.93% # Bytes accessed per row activation
system.mem_ctrls.bytesPerActivate::256-383        68860     11.15%     93.07% # Bytes accessed per row activation
system.mem_ctrls.bytesPerActivate::384-511         9050      1.46%     94.54% # Bytes accessed per row activation
system.mem_ctrls.bytesPerActivate::512-639         6707      1.09%     95.63% # Bytes accessed per row activation
system.mem_ctrls.bytesPerActivate::640-767         5274      0.85%     96.48% # Bytes accessed per row activation
system.mem_ctrls.bytesPerActivate::768-895         4501      0.73%     97.21% # Bytes accessed per row activation
system.mem_ctrls.bytesPerActivate::896-1023         3423      0.55%     97.76% # Bytes accessed per row activation
system.mem_ctrls.bytesPerActivate::1024-1151        13829      2.24%    100.00% # Bytes accessed per row activation
system.mem_ctrls.bytesPerActivate::total       617790                       # Bytes accessed per row activation
system.mem_ctrls.rdPerTurnAround::samples        33183                       # Reads before turning the bus around for writes
system.mem_ctrls.rdPerTurnAround::mean      28.545460                       # Reads before turning the bus around for writes
system.mem_ctrls.rdPerTurnAround::stdev    295.670634                       # Reads before turning the bus around for writes
system.mem_ctrls.rdPerTurnAround::0-2047        33181     99.99%     99.99% # Reads before turning the bus around for writes
system.mem_ctrls.rdPerTurnAround::14336-16383            1      0.00%    100.00% # Reads before turning the bus around for writes
system.mem_ctrls.rdPerTurnAround::51200-53247            1      0.00%    100.00% # Reads before turning the bus around for writes
system.mem_ctrls.rdPerTurnAround::total         33183                       # Reads before turning the bus around for writes
system.mem_ctrls.wrPerTurnAround::samples        33183                       # Writes before turning the bus around for reads
system.mem_ctrls.wrPerTurnAround::mean      17.384836                       # Writes before turning the bus around for reads
system.mem_ctrls.wrPerTurnAround::gmean     17.355804                       # Writes before turning the bus around for reads
system.mem_ctrls.wrPerTurnAround::stdev      0.998064                       # Writes before turning the bus around for reads
system.mem_ctrls.wrPerTurnAround::16            10517     31.69%     31.69% # Writes before turning the bus around for reads
system.mem_ctrls.wrPerTurnAround::17              877      2.64%     34.34% # Writes before turning the bus around for reads
system.mem_ctrls.wrPerTurnAround::18            20623     62.15%     96.49% # Writes before turning the bus around for reads
system.mem_ctrls.wrPerTurnAround::19              952      2.87%     99.36% # Writes before turning the bus around for reads
system.mem_ctrls.wrPerTurnAround::20              153      0.46%     99.82% # Writes before turning the bus around for reads
system.mem_ctrls.wrPerTurnAround::21               37      0.11%     99.93% # Writes before turning the bus around for reads
system.mem_ctrls.wrPerTurnAround::22                8      0.02%     99.95% # Writes before turning the bus around for reads
system.mem_ctrls.wrPerTurnAround::23               10      0.03%     99.98% # Writes before turning the bus around for reads
system.mem_ctrls.wrPerTurnAround::24                1      0.00%     99.98% # Writes before turning the bus around for reads
system.mem_ctrls.wrPerTurnAround::25                3      0.01%     99.99% # Writes before turning the bus around for reads
system.mem_ctrls.wrPerTurnAround::26                1      0.00%    100.00% # Writes before turning the bus around for reads
system.mem_ctrls.wrPerTurnAround::30                1      0.00%    100.00% # Writes before turning the bus around for reads
system.mem_ctrls.wrPerTurnAround::total         33183                       # Writes before turning the bus around for reads
system.mem_ctrls.totQLat                   8052351492                       # Total ticks spent queuing
system.mem_ctrls.totMemAccLat             25137613992                       # Total ticks spent from burst creation until serviced by the DRAM
system.mem_ctrls.totBusLat                 4556070000                       # Total ticks spent in databus transfers
system.mem_ctrls.avgQLat                      8836.95                       # Average queueing delay per DRAM burst
system.mem_ctrls.avgBusLat                    5000.00                       # Average bus latency per DRAM burst
system.mem_ctrls.avgMemAccLat                27586.95                       # Average memory access latency per DRAM burst
system.mem_ctrls.avgRdBW                        25.16                       # Average DRAM read bandwidth in MiByte/s
system.mem_ctrls.avgWrBW                        15.93                       # Average achieved write bandwidth in MiByte/s
system.mem_ctrls.avgRdBWSys                     25.21                       # Average system read bandwidth in MiByte/s
system.mem_ctrls.avgWrBWSys                     15.93                       # Average system write bandwidth in MiByte/s
system.mem_ctrls.peakBW                      12800.00                       # Theoretical peak bandwidth in MiByte/s
system.mem_ctrls.busUtil                         0.32                       # Data bus utilization in percentage
system.mem_ctrls.busUtilRead                     0.20                       # Data bus utilization in percentage for reads
system.mem_ctrls.busUtilWrite                    0.12                       # Data bus utilization in percentage for writes
system.mem_ctrls.avgRdQLen                       1.00                       # Average read queue length when enqueuing
system.mem_ctrls.avgWrQLen                      24.48                       # Average write queue length when enqueuing
system.mem_ctrls.readRowHits                   679391                       # Number of row buffer hits during reads
system.mem_ctrls.writeRowHits                  190914                       # Number of row buffer hits during writes
system.mem_ctrls.readRowHitRate                 74.56                       # Row buffer hit rate for reads
system.mem_ctrls.writeRowHitRate                33.09                       # Row buffer hit rate for writes
system.mem_ctrls.avgGap                    1555615.72                       # Average gap between requests
system.mem_ctrls.pageHitRate                    58.48                       # Row buffer hit rate, read and write combined
system.mem_ctrls_0.actEnergy               2335866120                       # Energy for activate commands per rank (pJ)
system.mem_ctrls_0.preEnergy               1274530125                       # Energy for precharge commands per rank (pJ)
system.mem_ctrls_0.readEnergy              3679392600                       # Energy for read commands per rank (pJ)
system.mem_ctrls_0.writeEnergy             1861224480                       # Energy for write commands per rank (pJ)
system.mem_ctrls_0.refreshEnergy         152070628320                       # Energy for refresh commands per rank (pJ)
system.mem_ctrls_0.actBackEnergy         254229549210                       # Energy for active background per rank (pJ)
system.mem_ctrls_0.preBackEnergy         1173947799750                       # Energy for precharge background per rank (pJ)
system.mem_ctrls_0.totalEnergy           1589398990605                       # Total energy per rank (pJ)
system.mem_ctrls_0.averagePower            682.655197                       # Core power per rank (mW)
system.mem_ctrls_0.memoryStateTime::IDLE 1945438253251                       # Time in different power states
system.mem_ctrls_0.memoryStateTime::REF   77387180000                       # Time in different power states
system.mem_ctrls_0.memoryStateTime::PRE_PDN            0                       # Time in different power states
system.mem_ctrls_0.memoryStateTime::ACT  294699923249                       # Time in different power states
system.mem_ctrls_0.memoryStateTime::ACT_PDN            0                       # Time in different power states
system.mem_ctrls_1.actEnergy               2384635680                       # Energy for activate commands per rank (pJ)
system.mem_ctrls_1.preEnergy               1301140500                       # Energy for precharge commands per rank (pJ)
system.mem_ctrls_1.readEnergy              3717745200                       # Energy for read commands per rank (pJ)
system.mem_ctrls_1.writeEnergy             1876964400                       # Energy for write commands per rank (pJ)
system.mem_ctrls_1.refreshEnergy         152070628320                       # Energy for refresh commands per rank (pJ)
system.mem_ctrls_1.actBackEnergy         254872264680                       # Energy for active background per rank (pJ)
system.mem_ctrls_1.preBackEnergy         1173384014250                       # Energy for precharge background per rank (pJ)
system.mem_ctrls_1.totalEnergy           1589607393030                       # Total energy per rank (pJ)
system.mem_ctrls_1.averagePower            682.744707                       # Core power per rank (mW)
system.mem_ctrls_1.memoryStateTime::IDLE 1946028812500                       # Time in different power states
system.mem_ctrls_1.memoryStateTime::REF   77387180000                       # Time in different power states
system.mem_ctrls_1.memoryStateTime::PRE_PDN            0                       # Time in different power states
system.mem_ctrls_1.memoryStateTime::ACT  294106816250                       # Time in different power states
system.mem_ctrls_1.memoryStateTime::ACT_PDN            0                       # Time in different power states
system.cpu_voltage_domain.voltage                   1                       # Voltage in Volts
system.cpu_clk_domain.clock                       500                       # Clock period in ticks
system.cpu0.apic_clk_domain.clock                8000                       # Clock period in ticks
system.cpu0.numCycles                      4633204186                       # number of cpu cycles simulated
system.cpu0.numWorkItemsStarted                     0                       # number of work items this cpu started
system.cpu0.numWorkItemsCompleted                   0                       # number of work items this cpu completed
system.cpu0.kern.inst.arm                           0                       # number of arm instructions executed
system.cpu0.kern.inst.quiesce                       0                       # number of quiesce instructions executed
system.cpu0.committedInsts                 1297392265                       # Number of instructions committed
system.cpu0.committedOps                   2348605388                       # Number of ops (including micro ops) committed
system.cpu0.num_int_alu_accesses           1506636098                       # Number of integer alu accesses
system.cpu0.num_fp_alu_accesses            1130300403                       # Number of float alu accesses
system.cpu0.num_func_calls                     801378                       # number of times a function call or return occured
system.cpu0.num_conditional_control_insts    160860760                       # number of instructions that are conditional controls
system.cpu0.num_int_insts                  1506636098                       # number of integer instructions
system.cpu0.num_fp_insts                   1130300403                       # number of float instructions
system.cpu0.num_int_register_reads         2939958375                       # number of times the integer registers were read
system.cpu0.num_int_register_writes        1033722129                       # number of times the integer registers were written
system.cpu0.num_fp_register_reads          1382500491                       # number of times the floating registers were read
system.cpu0.num_fp_register_writes         1075410492                       # number of times the floating registers were written
system.cpu0.num_cc_register_reads           938957584                       # number of times the CC registers were read
system.cpu0.num_cc_register_writes          528031245                       # number of times the CC registers were written
system.cpu0.num_mem_refs                    388300586                       # number of memory refs
system.cpu0.num_load_insts                  349925065                       # Number of load instructions
system.cpu0.num_store_insts                  38375521                       # Number of store instructions
system.cpu0.num_idle_cycles              19862911.665424                       # Number of idle cycles
system.cpu0.num_busy_cycles              4613341274.334577                       # Number of busy cycles
system.cpu0.not_idle_fraction                0.995713                       # Percentage of non-idle cycles
system.cpu0.idle_fraction                    0.004287                       # Percentage of idle cycles
system.cpu0.Branches                        166251843                       # Number of branches fetched
system.cpu0.op_class::No_OpClass              3900853      0.17%      0.17% # Class of executed instruction
system.cpu0.op_class::IntAlu               1228709624     52.32%     52.48% # Class of executed instruction
system.cpu0.op_class::IntMult                 4265602      0.18%     52.66% # Class of executed instruction
system.cpu0.op_class::IntDiv                      706      0.00%     52.66% # Class of executed instruction
system.cpu0.op_class::FloatAdd              723444344     30.80%     83.47% # Class of executed instruction
system.cpu0.op_class::FloatCmp                      0      0.00%     83.47% # Class of executed instruction
system.cpu0.op_class::FloatCvt                      0      0.00%     83.47% # Class of executed instruction
system.cpu0.op_class::FloatMult                     0      0.00%     83.47% # Class of executed instruction
system.cpu0.op_class::FloatDiv                      0      0.00%     83.47% # Class of executed instruction
system.cpu0.op_class::FloatSqrt                     0      0.00%     83.47% # Class of executed instruction
system.cpu0.op_class::SimdAdd                       0      0.00%     83.47% # Class of executed instruction
system.cpu0.op_class::SimdAddAcc                    0      0.00%     83.47% # Class of executed instruction
system.cpu0.op_class::SimdAlu                       0      0.00%     83.47% # Class of executed instruction
system.cpu0.op_class::SimdCmp                       0      0.00%     83.47% # Class of executed instruction
system.cpu0.op_class::SimdCvt                       0      0.00%     83.47% # Class of executed instruction
system.cpu0.op_class::SimdMisc                      0      0.00%     83.47% # Class of executed instruction
system.cpu0.op_class::SimdMult                      0      0.00%     83.47% # Class of executed instruction
system.cpu0.op_class::SimdMultAcc                   0      0.00%     83.47% # Class of executed instruction
system.cpu0.op_class::SimdShift                     0      0.00%     83.47% # Class of executed instruction
system.cpu0.op_class::SimdShiftAcc                  0      0.00%     83.47% # Class of executed instruction
system.cpu0.op_class::SimdSqrt                      0      0.00%     83.47% # Class of executed instruction
system.cpu0.op_class::SimdFloatAdd                  0      0.00%     83.47% # Class of executed instruction
system.cpu0.op_class::SimdFloatAlu                  0      0.00%     83.47% # Class of executed instruction
system.cpu0.op_class::SimdFloatCmp                  0      0.00%     83.47% # Class of executed instruction
system.cpu0.op_class::SimdFloatCvt                  0      0.00%     83.47% # Class of executed instruction
system.cpu0.op_class::SimdFloatDiv                  0      0.00%     83.47% # Class of executed instruction
system.cpu0.op_class::SimdFloatMisc                 0      0.00%     83.47% # Class of executed instruction
system.cpu0.op_class::SimdFloatMult                 0      0.00%     83.47% # Class of executed instruction
system.cpu0.op_class::SimdFloatMultAcc              0      0.00%     83.47% # Class of executed instruction
system.cpu0.op_class::SimdFloatSqrt                 0      0.00%     83.47% # Class of executed instruction
system.cpu0.op_class::MemRead               349925065     14.90%     98.37% # Class of executed instruction
system.cpu0.op_class::MemWrite               38375521      1.63%    100.00% # Class of executed instruction
system.cpu0.op_class::IprAccess                     0      0.00%    100.00% # Class of executed instruction
system.cpu0.op_class::InstPrefetch                  0      0.00%    100.00% # Class of executed instruction
system.cpu0.op_class::total                2348621715                       # Class of executed instruction
system.cpu1.apic_clk_domain.clock                8000                       # Clock period in ticks
system.cpu1.numCycles                      4633306151                       # number of cpu cycles simulated
system.cpu1.numWorkItemsStarted                     0                       # number of work items this cpu started
system.cpu1.numWorkItemsCompleted                   0                       # number of work items this cpu completed
system.cpu1.kern.inst.arm                           0                       # number of arm instructions executed
system.cpu1.kern.inst.quiesce                       0                       # number of quiesce instructions executed
system.cpu1.committedInsts                    5111697                       # Number of instructions committed
system.cpu1.committedOps                     10247970                       # Number of ops (including micro ops) committed
system.cpu1.num_int_alu_accesses             10068180                       # Number of integer alu accesses
system.cpu1.num_fp_alu_accesses                  1893                       # Number of float alu accesses
system.cpu1.num_func_calls                     260947                       # number of times a function call or return occured
system.cpu1.num_conditional_control_insts       892124                       # number of instructions that are conditional controls
system.cpu1.num_int_insts                    10068180                       # number of integer instructions
system.cpu1.num_fp_insts                         1893                       # number of float instructions
system.cpu1.num_int_register_reads           19857128                       # number of times the integer registers were read
system.cpu1.num_int_register_writes           8189757                       # number of times the integer registers were written
system.cpu1.num_fp_register_reads                3183                       # number of times the floating registers were read
system.cpu1.num_fp_register_writes               1511                       # number of times the floating registers were written
system.cpu1.num_cc_register_reads             6607708                       # number of times the CC registers were read
system.cpu1.num_cc_register_writes            3513708                       # number of times the CC registers were written
system.cpu1.num_mem_refs                      2248250                       # number of memory refs
system.cpu1.num_load_insts                    1460557                       # Number of load instructions
system.cpu1.num_store_insts                    787693                       # Number of store instructions
system.cpu1.num_idle_cycles              4612795999.734436                       # Number of idle cycles
system.cpu1.num_busy_cycles              20510151.265564                       # Number of busy cycles
system.cpu1.not_idle_fraction                0.004427                       # Percentage of non-idle cycles
system.cpu1.idle_fraction                    0.995573                       # Percentage of idle cycles
system.cpu1.Branches                          1203588                       # Number of branches fetched
system.cpu1.op_class::No_OpClass                73484      0.72%      0.72% # Class of executed instruction
system.cpu1.op_class::IntAlu                  7891624     77.01%     77.72% # Class of executed instruction
system.cpu1.op_class::IntMult                   11489      0.11%     77.84% # Class of executed instruction
system.cpu1.op_class::IntDiv                    21780      0.21%     78.05% # Class of executed instruction
system.cpu1.op_class::FloatAdd                   1434      0.01%     78.06% # Class of executed instruction
system.cpu1.op_class::FloatCmp                      0      0.00%     78.06% # Class of executed instruction
system.cpu1.op_class::FloatCvt                      0      0.00%     78.06% # Class of executed instruction
system.cpu1.op_class::FloatMult                     0      0.00%     78.06% # Class of executed instruction
system.cpu1.op_class::FloatDiv                      0      0.00%     78.06% # Class of executed instruction
system.cpu1.op_class::FloatSqrt                     0      0.00%     78.06% # Class of executed instruction
system.cpu1.op_class::SimdAdd                       0      0.00%     78.06% # Class of executed instruction
system.cpu1.op_class::SimdAddAcc                    0      0.00%     78.06% # Class of executed instruction
system.cpu1.op_class::SimdAlu                       0      0.00%     78.06% # Class of executed instruction
system.cpu1.op_class::SimdCmp                       0      0.00%     78.06% # Class of executed instruction
system.cpu1.op_class::SimdCvt                       0      0.00%     78.06% # Class of executed instruction
system.cpu1.op_class::SimdMisc                      0      0.00%     78.06% # Class of executed instruction
system.cpu1.op_class::SimdMult                      0      0.00%     78.06% # Class of executed instruction
system.cpu1.op_class::SimdMultAcc                   0      0.00%     78.06% # Class of executed instruction
system.cpu1.op_class::SimdShift                     0      0.00%     78.06% # Class of executed instruction
system.cpu1.op_class::SimdShiftAcc                  0      0.00%     78.06% # Class of executed instruction
system.cpu1.op_class::SimdSqrt                      0      0.00%     78.06% # Class of executed instruction
system.cpu1.op_class::SimdFloatAdd                  0      0.00%     78.06% # Class of executed instruction
system.cpu1.op_class::SimdFloatAlu                  0      0.00%     78.06% # Class of executed instruction
system.cpu1.op_class::SimdFloatCmp                  0      0.00%     78.06% # Class of executed instruction
system.cpu1.op_class::SimdFloatCvt                  0      0.00%     78.06% # Class of executed instruction
system.cpu1.op_class::SimdFloatDiv                  0      0.00%     78.06% # Class of executed instruction
system.cpu1.op_class::SimdFloatMisc                 0      0.00%     78.06% # Class of executed instruction
system.cpu1.op_class::SimdFloatMult                 0      0.00%     78.06% # Class of executed instruction
system.cpu1.op_class::SimdFloatMultAcc              0      0.00%     78.06% # Class of executed instruction
system.cpu1.op_class::SimdFloatSqrt                 0      0.00%     78.06% # Class of executed instruction
system.cpu1.op_class::MemRead                 1460557     14.25%     92.31% # Class of executed instruction
system.cpu1.op_class::MemWrite                 787693      7.69%    100.00% # Class of executed instruction
system.cpu1.op_class::IprAccess                     0      0.00%    100.00% # Class of executed instruction
system.cpu1.op_class::InstPrefetch                  0      0.00%    100.00% # Class of executed instruction
system.cpu1.op_class::total                  10248061                       # Class of executed instruction
system.cpu2.apic_clk_domain.clock                8000                       # Clock period in ticks
system.cpu2.numCycles                      4634088239                       # number of cpu cycles simulated
system.cpu2.numWorkItemsStarted                     0                       # number of work items this cpu started
system.cpu2.numWorkItemsCompleted                   0                       # number of work items this cpu completed
system.cpu2.kern.inst.arm                           0                       # number of arm instructions executed
system.cpu2.kern.inst.quiesce                       0                       # number of quiesce instructions executed
system.cpu2.committedInsts                    1904203                       # Number of instructions committed
system.cpu2.committedOps                      4071152                       # Number of ops (including micro ops) committed
system.cpu2.num_int_alu_accesses              3984371                       # Number of integer alu accesses
system.cpu2.num_fp_alu_accesses                    39                       # Number of float alu accesses
system.cpu2.num_func_calls                     107138                       # number of times a function call or return occured
system.cpu2.num_conditional_control_insts       317399                       # number of instructions that are conditional controls
system.cpu2.num_int_insts                     3984371                       # number of integer instructions
system.cpu2.num_fp_insts                           39                       # number of float instructions
system.cpu2.num_int_register_reads            7968741                       # number of times the integer registers were read
system.cpu2.num_int_register_writes           3292520                       # number of times the integer registers were written
system.cpu2.num_fp_register_reads                  63                       # number of times the floating registers were read
system.cpu2.num_fp_register_writes                 31                       # number of times the floating registers were written
system.cpu2.num_cc_register_reads             2449773                       # number of times the CC registers were read
system.cpu2.num_cc_register_writes            1247329                       # number of times the CC registers were written
system.cpu2.num_mem_refs                       921658                       # number of memory refs
system.cpu2.num_load_insts                     574267                       # Number of load instructions
system.cpu2.num_store_insts                    347391                       # Number of store instructions
system.cpu2.num_idle_cycles              4626203066.380483                       # Number of idle cycles
system.cpu2.num_busy_cycles              7885172.619517                       # Number of busy cycles
system.cpu2.not_idle_fraction                0.001702                       # Percentage of non-idle cycles
system.cpu2.idle_fraction                    0.998298                       # Percentage of idle cycles
system.cpu2.Branches                           459224                       # Number of branches fetched
system.cpu2.op_class::No_OpClass                70820      1.74%      1.74% # Class of executed instruction
system.cpu2.op_class::IntAlu                  3046295     74.83%     76.57% # Class of executed instruction
system.cpu2.op_class::IntMult                    7340      0.18%     76.75% # Class of executed instruction
system.cpu2.op_class::IntDiv                    25031      0.61%     77.36% # Class of executed instruction
system.cpu2.op_class::FloatAdd                     30      0.00%     77.36% # Class of executed instruction
system.cpu2.op_class::FloatCmp                      0      0.00%     77.36% # Class of executed instruction
system.cpu2.op_class::FloatCvt                      0      0.00%     77.36% # Class of executed instruction
system.cpu2.op_class::FloatMult                     0      0.00%     77.36% # Class of executed instruction
system.cpu2.op_class::FloatDiv                      0      0.00%     77.36% # Class of executed instruction
system.cpu2.op_class::FloatSqrt                     0      0.00%     77.36% # Class of executed instruction
system.cpu2.op_class::SimdAdd                       0      0.00%     77.36% # Class of executed instruction
system.cpu2.op_class::SimdAddAcc                    0      0.00%     77.36% # Class of executed instruction
system.cpu2.op_class::SimdAlu                       0      0.00%     77.36% # Class of executed instruction
system.cpu2.op_class::SimdCmp                       0      0.00%     77.36% # Class of executed instruction
system.cpu2.op_class::SimdCvt                       0      0.00%     77.36% # Class of executed instruction
system.cpu2.op_class::SimdMisc                      0      0.00%     77.36% # Class of executed instruction
system.cpu2.op_class::SimdMult                      0      0.00%     77.36% # Class of executed instruction
system.cpu2.op_class::SimdMultAcc                   0      0.00%     77.36% # Class of executed instruction
system.cpu2.op_class::SimdShift                     0      0.00%     77.36% # Class of executed instruction
system.cpu2.op_class::SimdShiftAcc                  0      0.00%     77.36% # Class of executed instruction
system.cpu2.op_class::SimdSqrt                      0      0.00%     77.36% # Class of executed instruction
system.cpu2.op_class::SimdFloatAdd                  0      0.00%     77.36% # Class of executed instruction
system.cpu2.op_class::SimdFloatAlu                  0      0.00%     77.36% # Class of executed instruction
system.cpu2.op_class::SimdFloatCmp                  0      0.00%     77.36% # Class of executed instruction
system.cpu2.op_class::SimdFloatCvt                  0      0.00%     77.36% # Class of executed instruction
system.cpu2.op_class::SimdFloatDiv                  0      0.00%     77.36% # Class of executed instruction
system.cpu2.op_class::SimdFloatMisc                 0      0.00%     77.36% # Class of executed instruction
system.cpu2.op_class::SimdFloatMult                 0      0.00%     77.36% # Class of executed instruction
system.cpu2.op_class::SimdFloatMultAcc              0      0.00%     77.36% # Class of executed instruction
system.cpu2.op_class::SimdFloatSqrt                 0      0.00%     77.36% # Class of executed instruction
system.cpu2.op_class::MemRead                  574267     14.11%     91.47% # Class of executed instruction
system.cpu2.op_class::MemWrite                 347391      8.53%    100.00% # Class of executed instruction
system.cpu2.op_class::IprAccess                     0      0.00%    100.00% # Class of executed instruction
system.cpu2.op_class::InstPrefetch                  0      0.00%    100.00% # Class of executed instruction
system.cpu2.op_class::total                   4071174                       # Class of executed instruction
system.cpu3.apic_clk_domain.clock                8000                       # Clock period in ticks
system.cpu3.numCycles                      4636981549                       # number of cpu cycles simulated
system.cpu3.numWorkItemsStarted                     0                       # number of work items this cpu started
system.cpu3.numWorkItemsCompleted                   0                       # number of work items this cpu completed
system.cpu3.kern.inst.arm                           0                       # number of arm instructions executed
system.cpu3.kern.inst.quiesce                       0                       # number of quiesce instructions executed
system.cpu3.committedInsts                    3606501                       # Number of instructions committed
system.cpu3.committedOps                      7412183                       # Number of ops (including micro ops) committed
system.cpu3.num_int_alu_accesses              7202249                       # Number of integer alu accesses
system.cpu3.num_fp_alu_accesses                   372                       # Number of float alu accesses
system.cpu3.num_func_calls                     163406                       # number of times a function call or return occured
system.cpu3.num_conditional_control_insts       586468                       # number of instructions that are conditional controls
system.cpu3.num_int_insts                     7202249                       # number of integer instructions
system.cpu3.num_fp_insts                          372                       # number of float instructions
system.cpu3.num_int_register_reads           14041518                       # number of times the integer registers were read
system.cpu3.num_int_register_writes           5941958                       # number of times the integer registers were written
system.cpu3.num_fp_register_reads                 596                       # number of times the floating registers were read
system.cpu3.num_fp_register_writes                261                       # number of times the floating registers were written
system.cpu3.num_cc_register_reads             4485429                       # number of times the CC registers were read
system.cpu3.num_cc_register_writes            2756167                       # number of times the CC registers were written
system.cpu3.num_mem_refs                      1511548                       # number of memory refs
system.cpu3.num_load_insts                     938666                       # Number of load instructions
system.cpu3.num_store_insts                    572882                       # Number of store instructions
system.cpu3.num_idle_cycles              4621074847.779941                       # Number of idle cycles
system.cpu3.num_busy_cycles              15906701.220060                       # Number of busy cycles
system.cpu3.not_idle_fraction                0.003430                       # Percentage of non-idle cycles
system.cpu3.idle_fraction                    0.996570                       # Percentage of idle cycles
system.cpu3.Branches                           809196                       # Number of branches fetched
system.cpu3.op_class::No_OpClass                76615      1.03%      1.03% # Class of executed instruction
system.cpu3.op_class::IntAlu                  5789748     78.11%     79.14% # Class of executed instruction
system.cpu3.op_class::IntMult                    8181      0.11%     79.25% # Class of executed instruction
system.cpu3.op_class::IntDiv                    25933      0.35%     79.60% # Class of executed instruction
system.cpu3.op_class::FloatAdd                    244      0.00%     79.61% # Class of executed instruction
system.cpu3.op_class::FloatCmp                      0      0.00%     79.61% # Class of executed instruction
system.cpu3.op_class::FloatCvt                      0      0.00%     79.61% # Class of executed instruction
system.cpu3.op_class::FloatMult                     0      0.00%     79.61% # Class of executed instruction
system.cpu3.op_class::FloatDiv                      0      0.00%     79.61% # Class of executed instruction
system.cpu3.op_class::FloatSqrt                     0      0.00%     79.61% # Class of executed instruction
system.cpu3.op_class::SimdAdd                       0      0.00%     79.61% # Class of executed instruction
system.cpu3.op_class::SimdAddAcc                    0      0.00%     79.61% # Class of executed instruction
system.cpu3.op_class::SimdAlu                       0      0.00%     79.61% # Class of executed instruction
system.cpu3.op_class::SimdCmp                       0      0.00%     79.61% # Class of executed instruction
system.cpu3.op_class::SimdCvt                       0      0.00%     79.61% # Class of executed instruction
system.cpu3.op_class::SimdMisc                      0      0.00%     79.61% # Class of executed instruction
system.cpu3.op_class::SimdMult                      0      0.00%     79.61% # Class of executed instruction
system.cpu3.op_class::SimdMultAcc                   0      0.00%     79.61% # Class of executed instruction
system.cpu3.op_class::SimdShift                     0      0.00%     79.61% # Class of executed instruction
system.cpu3.op_class::SimdShiftAcc                  0      0.00%     79.61% # Class of executed instruction
system.cpu3.op_class::SimdSqrt                      0      0.00%     79.61% # Class of executed instruction
system.cpu3.op_class::SimdFloatAdd                  0      0.00%     79.61% # Class of executed instruction
system.cpu3.op_class::SimdFloatAlu                  0      0.00%     79.61% # Class of executed instruction
system.cpu3.op_class::SimdFloatCmp                  0      0.00%     79.61% # Class of executed instruction
system.cpu3.op_class::SimdFloatCvt                  0      0.00%     79.61% # Class of executed instruction
system.cpu3.op_class::SimdFloatDiv                  0      0.00%     79.61% # Class of executed instruction
system.cpu3.op_class::SimdFloatMisc                 0      0.00%     79.61% # Class of executed instruction
system.cpu3.op_class::SimdFloatMult                 0      0.00%     79.61% # Class of executed instruction
system.cpu3.op_class::SimdFloatMultAcc              0      0.00%     79.61% # Class of executed instruction
system.cpu3.op_class::SimdFloatSqrt                 0      0.00%     79.61% # Class of executed instruction
system.cpu3.op_class::MemRead                  938666     12.66%     92.27% # Class of executed instruction
system.cpu3.op_class::MemWrite                 572882      7.73%    100.00% # Class of executed instruction
system.cpu3.op_class::IprAccess                     0      0.00%    100.00% # Class of executed instruction
system.cpu3.op_class::InstPrefetch                  0      0.00%    100.00% # Class of executed instruction
system.cpu3.op_class::total                   7412269                       # Class of executed instruction
system.iobus.trans_dist::ReadReq                  401                       # Transaction distribution
system.iobus.trans_dist::ReadResp                 401                       # Transaction distribution
system.iobus.trans_dist::WriteReq                3023                       # Transaction distribution
system.iobus.trans_dist::WriteResp               3023                       # Transaction distribution
system.iobus.trans_dist::MessageReq                54                       # Transaction distribution
system.iobus.trans_dist::MessageResp               54                       # Transaction distribution
system.iobus.pkt_count_system.pc.south_bridge.io_apic.int_master::system.ruby.l1_cntrl0.sequencer.pio-slave-port           22                       # Packet count per connected master and slave (bytes)
system.iobus.pkt_count_system.pc.south_bridge.io_apic.int_master::system.ruby.l1_cntrl1.sequencer.pio-slave-port           20                       # Packet count per connected master and slave (bytes)
system.iobus.pkt_count_system.pc.south_bridge.io_apic.int_master::system.ruby.l1_cntrl2.sequencer.pio-slave-port           22                       # Packet count per connected master and slave (bytes)
system.iobus.pkt_count_system.pc.south_bridge.io_apic.int_master::system.ruby.l1_cntrl3.sequencer.pio-slave-port           22                       # Packet count per connected master and slave (bytes)
system.iobus.pkt_count_system.pc.south_bridge.io_apic.int_master::total           86                       # Packet count per connected master and slave (bytes)
system.iobus.pkt_count_system.ruby.l1_cntrl0.sequencer.mem-master-port::system.pc.south_bridge.ide.pio          426                       # Packet count per connected master and slave (bytes)
system.iobus.pkt_count_system.ruby.l1_cntrl0.sequencer.mem-master-port::system.pc.south_bridge.io_apic.pio            8                       # Packet count per connected master and slave (bytes)
system.iobus.pkt_count_system.ruby.l1_cntrl0.sequencer.mem-master-port::system.ruby.l1_cntrl0.sequencer.pio-slave-port         1208                       # Packet count per connected master and slave (bytes)
system.iobus.pkt_count_system.ruby.l1_cntrl0.sequencer.mem-master-port::system.ruby.l1_cntrl1.sequencer.pio-slave-port            2                       # Packet count per connected master and slave (bytes)
system.iobus.pkt_count_system.ruby.l1_cntrl0.sequencer.mem-master-port::system.ruby.l1_cntrl3.sequencer.pio-slave-port            4                       # Packet count per connected master and slave (bytes)
system.iobus.pkt_count_system.ruby.l1_cntrl0.sequencer.mem-master-port::total         1648                       # Packet count per connected master and slave (bytes)
system.iobus.pkt_count_system.ruby.l1_cntrl1.sequencer.mem-master-port::system.pc.south_bridge.ide.pio          596                       # Packet count per connected master and slave (bytes)
system.iobus.pkt_count_system.ruby.l1_cntrl1.sequencer.mem-master-port::system.ruby.l1_cntrl0.sequencer.pio-slave-port            2                       # Packet count per connected master and slave (bytes)
system.iobus.pkt_count_system.ruby.l1_cntrl1.sequencer.mem-master-port::system.ruby.l1_cntrl1.sequencer.pio-slave-port         1198                       # Packet count per connected master and slave (bytes)
system.iobus.pkt_count_system.ruby.l1_cntrl1.sequencer.mem-master-port::system.ruby.l1_cntrl2.sequencer.pio-slave-port            2                       # Packet count per connected master and slave (bytes)
system.iobus.pkt_count_system.ruby.l1_cntrl1.sequencer.mem-master-port::system.ruby.l1_cntrl3.sequencer.pio-slave-port            2                       # Packet count per connected master and slave (bytes)
system.iobus.pkt_count_system.ruby.l1_cntrl1.sequencer.mem-master-port::total         1800                       # Packet count per connected master and slave (bytes)
system.iobus.pkt_count_system.ruby.l1_cntrl2.sequencer.mem-master-port::system.pc.south_bridge.ide.pio          426                       # Packet count per connected master and slave (bytes)
system.iobus.pkt_count_system.ruby.l1_cntrl2.sequencer.mem-master-port::system.pc.south_bridge.io_apic.pio            6                       # Packet count per connected master and slave (bytes)
system.iobus.pkt_count_system.ruby.l1_cntrl2.sequencer.mem-master-port::system.pc.com_1.pio          174                       # Packet count per connected master and slave (bytes)
system.iobus.pkt_count_system.ruby.l1_cntrl2.sequencer.mem-master-port::system.ruby.l1_cntrl2.sequencer.pio-slave-port         1190                       # Packet count per connected master and slave (bytes)
system.iobus.pkt_count_system.ruby.l1_cntrl2.sequencer.mem-master-port::system.ruby.l1_cntrl3.sequencer.pio-slave-port            2                       # Packet count per connected master and slave (bytes)
system.iobus.pkt_count_system.ruby.l1_cntrl2.sequencer.mem-master-port::total         1798                       # Packet count per connected master and slave (bytes)
system.iobus.pkt_count_system.ruby.l1_cntrl3.sequencer.mem-master-port::system.pc.south_bridge.ide.pio          392                       # Packet count per connected master and slave (bytes)
system.iobus.pkt_count_system.ruby.l1_cntrl3.sequencer.mem-master-port::system.pc.south_bridge.io_apic.pio            8                       # Packet count per connected master and slave (bytes)
system.iobus.pkt_count_system.ruby.l1_cntrl3.sequencer.mem-master-port::system.pc.com_1.pio            2                       # Packet count per connected master and slave (bytes)
system.iobus.pkt_count_system.ruby.l1_cntrl3.sequencer.mem-master-port::system.ruby.l1_cntrl0.sequencer.pio-slave-port            6                       # Packet count per connected master and slave (bytes)
system.iobus.pkt_count_system.ruby.l1_cntrl3.sequencer.mem-master-port::system.ruby.l1_cntrl2.sequencer.pio-slave-port            2                       # Packet count per connected master and slave (bytes)
system.iobus.pkt_count_system.ruby.l1_cntrl3.sequencer.mem-master-port::system.ruby.l1_cntrl3.sequencer.pio-slave-port         1214                       # Packet count per connected master and slave (bytes)
system.iobus.pkt_count_system.ruby.l1_cntrl3.sequencer.mem-master-port::total         1624                       # Packet count per connected master and slave (bytes)
system.iobus.pkt_count::total                    6956                       # Packet count per connected master and slave (bytes)
system.iobus.pkt_size_system.pc.south_bridge.io_apic.int_master::system.ruby.l1_cntrl0.sequencer.pio-slave-port           44                       # Cumulative packet size per connected master and slave (bytes)
system.iobus.pkt_size_system.pc.south_bridge.io_apic.int_master::system.ruby.l1_cntrl1.sequencer.pio-slave-port           40                       # Cumulative packet size per connected master and slave (bytes)
system.iobus.pkt_size_system.pc.south_bridge.io_apic.int_master::system.ruby.l1_cntrl2.sequencer.pio-slave-port           44                       # Cumulative packet size per connected master and slave (bytes)
system.iobus.pkt_size_system.pc.south_bridge.io_apic.int_master::system.ruby.l1_cntrl3.sequencer.pio-slave-port           44                       # Cumulative packet size per connected master and slave (bytes)
system.iobus.pkt_size_system.pc.south_bridge.io_apic.int_master::total          172                       # Cumulative packet size per connected master and slave (bytes)
system.iobus.pkt_size_system.ruby.l1_cntrl0.sequencer.mem-master-port::system.pc.south_bridge.ide.pio          240                       # Cumulative packet size per connected master and slave (bytes)
system.iobus.pkt_size_system.ruby.l1_cntrl0.sequencer.mem-master-port::system.pc.south_bridge.io_apic.pio           16                       # Cumulative packet size per connected master and slave (bytes)
system.iobus.pkt_size_system.ruby.l1_cntrl0.sequencer.mem-master-port::system.ruby.l1_cntrl0.sequencer.pio-slave-port         2416                       # Cumulative packet size per connected master and slave (bytes)
system.iobus.pkt_size_system.ruby.l1_cntrl0.sequencer.mem-master-port::system.ruby.l1_cntrl1.sequencer.pio-slave-port            4                       # Cumulative packet size per connected master and slave (bytes)
system.iobus.pkt_size_system.ruby.l1_cntrl0.sequencer.mem-master-port::system.ruby.l1_cntrl3.sequencer.pio-slave-port            8                       # Cumulative packet size per connected master and slave (bytes)
system.iobus.pkt_size_system.ruby.l1_cntrl0.sequencer.mem-master-port::total         2684                       # Cumulative packet size per connected master and slave (bytes)
system.iobus.pkt_size_system.ruby.l1_cntrl1.sequencer.mem-master-port::system.pc.south_bridge.ide.pio          340                       # Cumulative packet size per connected master and slave (bytes)
system.iobus.pkt_size_system.ruby.l1_cntrl1.sequencer.mem-master-port::system.ruby.l1_cntrl0.sequencer.pio-slave-port            4                       # Cumulative packet size per connected master and slave (bytes)
system.iobus.pkt_size_system.ruby.l1_cntrl1.sequencer.mem-master-port::system.ruby.l1_cntrl1.sequencer.pio-slave-port         2396                       # Cumulative packet size per connected master and slave (bytes)
system.iobus.pkt_size_system.ruby.l1_cntrl1.sequencer.mem-master-port::system.ruby.l1_cntrl2.sequencer.pio-slave-port            4                       # Cumulative packet size per connected master and slave (bytes)
system.iobus.pkt_size_system.ruby.l1_cntrl1.sequencer.mem-master-port::system.ruby.l1_cntrl3.sequencer.pio-slave-port            4                       # Cumulative packet size per connected master and slave (bytes)
system.iobus.pkt_size_system.ruby.l1_cntrl1.sequencer.mem-master-port::total         2748                       # Cumulative packet size per connected master and slave (bytes)
system.iobus.pkt_size_system.ruby.l1_cntrl2.sequencer.mem-master-port::system.pc.south_bridge.ide.pio          240                       # Cumulative packet size per connected master and slave (bytes)
system.iobus.pkt_size_system.ruby.l1_cntrl2.sequencer.mem-master-port::system.pc.south_bridge.io_apic.pio           12                       # Cumulative packet size per connected master and slave (bytes)
system.iobus.pkt_size_system.ruby.l1_cntrl2.sequencer.mem-master-port::system.pc.com_1.pio           87                       # Cumulative packet size per connected master and slave (bytes)
system.iobus.pkt_size_system.ruby.l1_cntrl2.sequencer.mem-master-port::system.ruby.l1_cntrl2.sequencer.pio-slave-port         2380                       # Cumulative packet size per connected master and slave (bytes)
system.iobus.pkt_size_system.ruby.l1_cntrl2.sequencer.mem-master-port::system.ruby.l1_cntrl3.sequencer.pio-slave-port            4                       # Cumulative packet size per connected master and slave (bytes)
system.iobus.pkt_size_system.ruby.l1_cntrl2.sequencer.mem-master-port::total         2723                       # Cumulative packet size per connected master and slave (bytes)
system.iobus.pkt_size_system.ruby.l1_cntrl3.sequencer.mem-master-port::system.pc.south_bridge.ide.pio          220                       # Cumulative packet size per connected master and slave (bytes)
system.iobus.pkt_size_system.ruby.l1_cntrl3.sequencer.mem-master-port::system.pc.south_bridge.io_apic.pio           16                       # Cumulative packet size per connected master and slave (bytes)
system.iobus.pkt_size_system.ruby.l1_cntrl3.sequencer.mem-master-port::system.pc.com_1.pio            1                       # Cumulative packet size per connected master and slave (bytes)
system.iobus.pkt_size_system.ruby.l1_cntrl3.sequencer.mem-master-port::system.ruby.l1_cntrl0.sequencer.pio-slave-port           12                       # Cumulative packet size per connected master and slave (bytes)
system.iobus.pkt_size_system.ruby.l1_cntrl3.sequencer.mem-master-port::system.ruby.l1_cntrl2.sequencer.pio-slave-port            4                       # Cumulative packet size per connected master and slave (bytes)
system.iobus.pkt_size_system.ruby.l1_cntrl3.sequencer.mem-master-port::system.ruby.l1_cntrl3.sequencer.pio-slave-port         2428                       # Cumulative packet size per connected master and slave (bytes)
system.iobus.pkt_size_system.ruby.l1_cntrl3.sequencer.mem-master-port::total         2681                       # Cumulative packet size per connected master and slave (bytes)
system.iobus.pkt_size::total                    11008                       # Cumulative packet size per connected master and slave (bytes)
system.iobus.reqLayer2.occupancy              1582500                       # Layer occupancy (ticks)
system.iobus.reqLayer2.utilization                0.0                       # Layer utilization (%)
system.iobus.reqLayer8.occupancy                20997                       # Layer occupancy (ticks)
system.iobus.reqLayer8.utilization                0.0                       # Layer utilization (%)
system.iobus.reqLayer12.occupancy              113500                       # Layer occupancy (ticks)
system.iobus.reqLayer12.utilization               0.0                       # Layer utilization (%)
system.iobus.reqLayer17.occupancy             1658463                       # Layer occupancy (ticks)
system.iobus.reqLayer17.utilization               0.0                       # Layer utilization (%)
system.iobus.reqLayer18.occupancy             1517488                       # Layer occupancy (ticks)
system.iobus.reqLayer18.utilization               0.0                       # Layer utilization (%)
system.iobus.reqLayer19.occupancy             1516490                       # Layer occupancy (ticks)
system.iobus.reqLayer19.utilization               0.0                       # Layer utilization (%)
system.iobus.reqLayer20.occupancy             1543489                       # Layer occupancy (ticks)
system.iobus.reqLayer20.utilization               0.0                       # Layer utilization (%)
system.iobus.respLayer0.occupancy               71460                       # Layer occupancy (ticks)
system.iobus.respLayer0.utilization               0.0                       # Layer utilization (%)
system.iobus.respLayer2.occupancy             1207500                       # Layer occupancy (ticks)
system.iobus.respLayer2.utilization               0.0                       # Layer utilization (%)
system.iobus.respLayer4.occupancy             1298500                       # Layer occupancy (ticks)
system.iobus.respLayer4.utilization               0.0                       # Layer utilization (%)
system.iobus.respLayer6.occupancy             1339500                       # Layer occupancy (ticks)
system.iobus.respLayer6.utilization               0.0                       # Layer utilization (%)
system.iobus.respLayer8.occupancy             1193500                       # Layer occupancy (ticks)
system.iobus.respLayer8.utilization               0.0                       # Layer utilization (%)
system.pc.south_bridge.ide.disks.dma_read_full_pages          356                       # Number of full page size DMA reads (not PRD).
system.pc.south_bridge.ide.disks.dma_read_bytes      1458176                       # Number of bytes transfered via DMA reads (not PRD).
system.pc.south_bridge.ide.disks.dma_read_txs          356                       # Number of DMA read transactions (not PRD).
system.pc.south_bridge.ide.disks.dma_write_full_pages            0                       # Number of full page size DMA writes.
system.pc.south_bridge.ide.disks.dma_write_bytes            0                       # Number of bytes transfered via DMA writes.
system.pc.south_bridge.ide.disks.dma_write_txs            0                       # Number of DMA write transactions.
system.ruby.clk_domain.clock                      500                       # Clock period in ticks
system.ruby.outstanding_req_hist_seqr::bucket_size            1                      
system.ruby.outstanding_req_hist_seqr::max_bucket            9                      
system.ruby.outstanding_req_hist_seqr::samples   2273639278                      
system.ruby.outstanding_req_hist_seqr::mean     1.001963                      
system.ruby.outstanding_req_hist_seqr::gmean     1.001361                      
system.ruby.outstanding_req_hist_seqr::stdev     0.044259                      
system.ruby.outstanding_req_hist_seqr    |           0      0.00%      0.00% |  2269176715     99.80%     99.80% |     4462563      0.20%    100.00% |           0      0.00%    100.00% |           0      0.00%    100.00% |           0      0.00%    100.00% |           0      0.00%    100.00% |           0      0.00%    100.00% |           0      0.00%    100.00% |           0      0.00%    100.00%
system.ruby.outstanding_req_hist_seqr::total   2273639278                      
system.ruby.latency_hist_seqr::bucket_size          128                      
system.ruby.latency_hist_seqr::max_bucket         1279                      
system.ruby.latency_hist_seqr::samples     2273639278                      
system.ruby.latency_hist_seqr::mean          1.051120                      
system.ruby.latency_hist_seqr::gmean         1.003348                      
system.ruby.latency_hist_seqr::stdev         2.555983                      
system.ruby.latency_hist_seqr            |  2273567854    100.00%    100.00% |       50228      0.00%    100.00% |        7804      0.00%    100.00% |        4040      0.00%    100.00% |        7347      0.00%    100.00% |        1864      0.00%    100.00% |          91      0.00%    100.00% |          44      0.00%    100.00% |           5      0.00%    100.00% |           1      0.00%    100.00%
system.ruby.latency_hist_seqr::total       2273639278                      
system.ruby.hit_latency_hist_seqr::bucket_size            2                      
system.ruby.hit_latency_hist_seqr::max_bucket           19                      
system.ruby.hit_latency_hist_seqr::samples   2272649649                      
system.ruby.hit_latency_hist_seqr::mean      1.005665                      
system.ruby.hit_latency_hist_seqr::gmean     1.001359                      
system.ruby.hit_latency_hist_seqr::stdev     0.237957                      
system.ruby.hit_latency_hist_seqr        |  2271362098     99.94%     99.94% |           0      0.00%     99.94% |           0      0.00%     99.94% |           0      0.00%     99.94% |           0      0.00%     99.94% |     1287371      0.06%    100.00% |         180      0.00%    100.00% |           0      0.00%    100.00% |           0      0.00%    100.00% |           0      0.00%    100.00%
system.ruby.hit_latency_hist_seqr::total   2272649649                      
system.ruby.miss_latency_hist_seqr::bucket_size          128                      
system.ruby.miss_latency_hist_seqr::max_bucket         1279                      
system.ruby.miss_latency_hist_seqr::samples       989629                      
system.ruby.miss_latency_hist_seqr::mean   105.434913                      
system.ruby.miss_latency_hist_seqr::gmean    95.518657                      
system.ruby.miss_latency_hist_seqr::stdev    63.076965                      
[...]
system.ruby.L1Cache_Controller.M.Load::total    218730035                      
system.ruby.L1Cache_Controller.M.Ifetch  |  1847702245     96.32%     96.32% |    70527531      3.68%    100.00% |       34248      0.00%    100.00% |       38582      0.00%    100.00%
system.ruby.L1Cache_Controller.M.Ifetch::total   1918302606                      
system.ruby.L1Cache_Controller.M.Store   |      157599     66.10%     66.10% |       60078     25.20%     91.30% |        2720      1.14%     92.44% |       18019      7.56%    100.00%
system.ruby.L1Cache_Controller.M.Store::total       238416                      
system.ruby.L1Cache_Controller.M.L2_Replacement |      271971     80.69%     80.69% |       65087     19.31%    100.00% |           0      0.00%    100.00% |           7      0.00%    100.00%
system.ruby.L1Cache_Controller.M.L2_Replacement::total       337065                      
system.ruby.L1Cache_Controller.M.L1_to_L2 |      732811     85.53%     85.53% |      109787     12.81%     98.34% |        4774      0.56%     98.90% |        9408      1.10%    100.00%
system.ruby.L1Cache_Controller.M.L1_to_L2::total       856780                      
system.ruby.L1Cache_Controller.M.Trigger_L2_to_L1D |      432133     94.80%     94.80% |       17015      3.73%     98.53% |        1193      0.26%     98.79% |        5514      1.21%    100.00%
system.ruby.L1Cache_Controller.M.Trigger_L2_to_L1D::total       455855                      
system.ruby.L1Cache_Controller.M.Trigger_L2_to_L1I |        7255     29.48%     29.48% |       17005     69.10%     98.58% |          62      0.25%     98.83% |         288      1.17%    100.00%
system.ruby.L1Cache_Controller.M.Trigger_L2_to_L1I::total        24610                      
system.ruby.L1Cache_Controller.M.Other_GETX |         820     29.34%     29.34% |         808     28.91%     58.25% |         694     24.83%     83.08% |         473     16.92%    100.00%
system.ruby.L1Cache_Controller.M.Other_GETX::total         2795                      
system.ruby.L1Cache_Controller.M.Other_GETS |        6268     22.51%     22.51% |        5388     19.35%     41.85% |        5611     20.15%     62.00% |       10583     38.00%    100.00%
system.ruby.L1Cache_Controller.M.Other_GETS::total        27850                      
system.ruby.L1Cache_Controller.M.Merged_GETS |           3      5.88%      5.88% |          27     52.94%     58.82% |          14     27.45%     86.27% |           7     13.73%    100.00%
system.ruby.L1Cache_Controller.M.Merged_GETS::total           51                      
system.ruby.L1Cache_Controller.MM.Load   |   137499612     88.02%     88.02% |    17557253     11.24%     99.26% |      540705      0.35%     99.61% |      615654      0.39%    100.00%
system.ruby.L1Cache_Controller.MM.Load::total    156213224                      
system.ruby.L1Cache_Controller.MM.Store  |    39429447     73.59%     73.59% |    12777002     23.85%     97.44% |      595049      1.11%     98.55% |      777663      1.45%    100.00%
system.ruby.L1Cache_Controller.MM.Store::total     53579161                      
system.ruby.L1Cache_Controller.MM.L2_Replacement |      557208     92.51%     92.51% |       45123      7.49%    100.00% |           2      0.00%    100.00% |          19      0.00%    100.00%
system.ruby.L1Cache_Controller.MM.L2_Replacement::total       602352                      
system.ruby.L1Cache_Controller.MM.L1_to_L2 |     1255599     82.43%     82.43% |      213173     13.99%     96.43% |       13813      0.91%     97.33% |       40624      2.67%    100.00%
system.ruby.L1Cache_Controller.MM.L1_to_L2::total      1523209                      
system.ruby.L1Cache_Controller.MM.Trigger_L2_to_L1D |      651320     82.41%     82.41% |      115131     14.57%     96.97% |        5926      0.75%     97.72% |       18002      2.28%    100.00%
system.ruby.L1Cache_Controller.MM.Trigger_L2_to_L1D::total       790379                      
system.ruby.L1Cache_Controller.MM.Other_GETX |        1064      6.80%      6.80% |        5512     35.22%     42.01% |        1096      7.00%     49.02% |        7980     50.98%    100.00%
system.ruby.L1Cache_Controller.MM.Other_GETX::total        15652                      
system.ruby.L1Cache_Controller.MM.Other_GETS |       26284     33.75%     33.75% |       11648     14.96%     48.71% |        4192      5.38%     54.09% |       35753     45.91%    100.00%
system.ruby.L1Cache_Controller.MM.Other_GETS::total        77877                      
system.ruby.L1Cache_Controller.MM.Merged_GETS |          12     11.01%     11.01% |          50     45.87%     56.88% |          28     25.69%     82.57% |          19     17.43%    100.00%
system.ruby.L1Cache_Controller.MM.Merged_GETS::total          109                      
system.ruby.L1Cache_Controller.SR.Load   |       25459     59.55%     59.55% |       10071     23.56%     83.11% |        3850      9.01%     92.12% |        3370      7.88%    100.00%
system.ruby.L1Cache_Controller.SR.Load::total        42750                      
system.ruby.L1Cache_Controller.SR.Ifetch |       42347     31.97%     31.97% |       39329     29.70%     61.67% |       30987     23.40%     85.07% |       19779     14.93%    100.00%
system.ruby.L1Cache_Controller.SR.Ifetch::total       132442                      
system.ruby.L1Cache_Controller.SR.Store  |         133     30.43%     30.43% |         160     36.61%     67.05% |          22      5.03%     72.08% |         122     27.92%    100.00%
system.ruby.L1Cache_Controller.SR.Store::total          437                      
system.ruby.L1Cache_Controller.OR.Load   |         177      1.70%      1.70% |        4649     44.52%     46.22% |        1773     16.98%     63.20% |        3843     36.80%    100.00%
system.ruby.L1Cache_Controller.OR.Load::total        10442                      
system.ruby.L1Cache_Controller.OR.Ifetch |          50      0.12%      0.12% |       25844     60.72%     60.83% |        2122      4.99%     65.82% |       14549     34.18%    100.00%
system.ruby.L1Cache_Controller.OR.Ifetch::total        42565                      
system.ruby.L1Cache_Controller.OR.Store  |           3      8.11%      8.11% |          19     51.35%     59.46% |           9     24.32%     83.78% |           6     16.22%    100.00%
system.ruby.L1Cache_Controller.OR.Store::total           37                      
system.ruby.L1Cache_Controller.MR.Load   |      413546     95.47%     95.47% |       13784      3.18%     98.66% |         930      0.21%     98.87% |        4886      1.13%    100.00%
system.ruby.L1Cache_Controller.MR.Load::total       433146                      
system.ruby.L1Cache_Controller.MR.Ifetch |        7255     29.48%     29.48% |       17005     69.10%     98.58% |          62      0.25%     98.83% |         288      1.17%    100.00%
system.ruby.L1Cache_Controller.MR.Ifetch::total        24610                      
system.ruby.L1Cache_Controller.MR.Store  |       18587     81.85%     81.85% |        3231     14.23%     96.08% |         263      1.16%     97.23% |         628      2.77%    100.00%
system.ruby.L1Cache_Controller.MR.Store::total        22709                      
system.ruby.L1Cache_Controller.MMR.Load  |      614463     86.98%     86.98% |       80500     11.39%     98.37% |        2392      0.34%     98.71% |        9123      1.29%    100.00%
system.ruby.L1Cache_Controller.MMR.Load::total       706478                      
system.ruby.L1Cache_Controller.MMR.Store |       36857     43.93%     43.93% |       34631     41.28%     85.21% |        3534      4.21%     89.42% |        8879     10.58%    100.00%
system.ruby.L1Cache_Controller.MMR.Store::total        83901                      
system.ruby.L1Cache_Controller.IM.Ack    |     1271749     91.45%     91.45% |      100496      7.23%     98.68% |       11269      0.81%     99.49% |        7120      0.51%    100.00%
system.ruby.L1Cache_Controller.IM.Ack::total      1390634                      
system.ruby.L1Cache_Controller.IM.Data   |        2278     42.48%     42.48% |        1129     21.06%     63.54% |        1018     18.99%     82.53% |         937     17.47%    100.00%
system.ruby.L1Cache_Controller.IM.Data::total         5362                      
system.ruby.L1Cache_Controller.IM.Exclusive_Data |      427065     90.34%     90.34% |       35871      7.59%     97.93% |        6084      1.29%     99.22% |        3707      0.78%    100.00%
system.ruby.L1Cache_Controller.IM.Exclusive_Data::total       472727                      
system.ruby.L1Cache_Controller.SM.Other_GETX |           0      0.00%      0.00% |           0      0.00%      0.00% |           1    100.00%    100.00% |           0      0.00%    100.00%
system.ruby.L1Cache_Controller.SM.Other_GETX::total            1                      
system.ruby.L1Cache_Controller.SM.Ack    |        6232     49.01%     49.01% |        2261     17.78%     66.79% |        1857     14.60%     81.39% |        2366     18.61%    100.00%
system.ruby.L1Cache_Controller.SM.Ack::total        12716                      
system.ruby.L1Cache_Controller.SM.Data   |        4379     42.73%     42.73% |        2267     22.12%     64.85% |        1433     13.98%     78.83% |        2169     21.17%    100.00%
system.ruby.L1Cache_Controller.SM.Data::total        10248                      
system.ruby.L1Cache_Controller.OM.Ack    |         129     16.10%     16.10% |         366     45.69%     61.80% |         168     20.97%     82.77% |         138     17.23%    100.00%
system.ruby.L1Cache_Controller.OM.Ack::total          801                      
system.ruby.L1Cache_Controller.OM.All_acks_no_sharers |          43     16.10%     16.10% |         122     45.69%     61.80% |          56     20.97%     82.77% |          46     17.23%    100.00%
system.ruby.L1Cache_Controller.OM.All_acks_no_sharers::total          267                      
system.ruby.L1Cache_Controller.ISM.Ack   |        3927     31.96%     31.96% |        3610     29.38%     61.33% |        1754     14.27%     75.60% |        2998     24.40%    100.00%
system.ruby.L1Cache_Controller.ISM.Ack::total        12289                      
system.ruby.L1Cache_Controller.ISM.All_acks_no_sharers |        6657     42.65%     42.65% |        3396     21.76%     64.40% |        2451     15.70%     80.10% |        3106     19.90%    100.00%
system.ruby.L1Cache_Controller.ISM.All_acks_no_sharers::total        15610                      
system.ruby.L1Cache_Controller.M_W.Load  |          84      5.38%      5.38% |        1373     87.96%     93.34% |          64      4.10%     97.44% |          40      2.56%    100.00%
system.ruby.L1Cache_Controller.M_W.Load::total         1561                      
system.ruby.L1Cache_Controller.M_W.Store |           8      8.16%      8.16% |          62     63.27%     71.43% |          11     11.22%     82.65% |          17     17.35%    100.00%
system.ruby.L1Cache_Controller.M_W.Store::total           98                      
system.ruby.L1Cache_Controller.M_W.Ack   |       11883     17.15%     17.15% |       38978     56.25%     73.40% |        6852      9.89%     83.29% |       11582     16.71%    100.00%
system.ruby.L1Cache_Controller.M_W.Ack::total        69295                      
system.ruby.L1Cache_Controller.M_W.All_acks_no_sharers |      470440     72.33%     72.33% |      141324     21.73%     94.06% |       10013      1.54%     95.60% |       28600      4.40%    100.00%
system.ruby.L1Cache_Controller.M_W.All_acks_no_sharers::total       650377                      
system.ruby.L1Cache_Controller.MM_W.Load |           0      0.00%      0.00% |           1     50.00%     50.00% |           1     50.00%    100.00% |           0      0.00%    100.00%
system.ruby.L1Cache_Controller.MM_W.Load::total            2                      
system.ruby.L1Cache_Controller.MM_W.Store |        1819     30.60%     30.60% |        1990     33.47%     64.07% |        1545     25.99%     90.06% |         591      9.94%    100.00%
system.ruby.L1Cache_Controller.MM_W.Store::total         5945                      
system.ruby.L1Cache_Controller.MM_W.Ack  |        5778     36.87%     36.87% |        3430     21.89%     58.76% |        4163     26.56%     85.32% |        2300     14.68%    100.00%
system.ruby.L1Cache_Controller.MM_W.Ack::total        15671                      
system.ruby.L1Cache_Controller.MM_W.All_acks_no_sharers |      427073     90.32%     90.32% |       35933      7.60%     97.92% |        6095      1.29%     99.21% |        3724      0.79%    100.00%
system.ruby.L1Cache_Controller.MM_W.All_acks_no_sharers::total       472825                      
system.ruby.L1Cache_Controller.IS.Other_GETS |           0      0.00%      0.00% |           1     50.00%     50.00% |           1     50.00%    100.00% |           0      0.00%    100.00%
system.ruby.L1Cache_Controller.IS.Other_GETS::total            2                      
system.ruby.L1Cache_Controller.IS.Ack    |     1392583     75.03%     75.03% |      363339     19.57%     94.60% |       27031      1.46%     96.06% |       73186      3.94%    100.00%
system.ruby.L1Cache_Controller.IS.Ack::total      1856139                      
system.ruby.L1Cache_Controller.IS.Shared_Ack |       10178     45.56%     45.56% |        4262     19.08%     64.64% |        7246     32.44%     97.08% |         653      2.92%    100.00%
system.ruby.L1Cache_Controller.IS.Shared_Ack::total        22339                      
system.ruby.L1Cache_Controller.IS.Data   |         679     30.93%     30.93% |        1074     48.93%     79.86% |         418     19.04%     98.91% |          24      1.09%    100.00%
system.ruby.L1Cache_Controller.IS.Data::total         2195                      
system.ruby.L1Cache_Controller.IS.Shared_Data |       14575     26.11%     26.11% |       19305     34.58%     60.69% |       14297     25.61%     86.30% |        7650     13.70%    100.00%
system.ruby.L1Cache_Controller.IS.Shared_Data::total        55827                      
system.ruby.L1Cache_Controller.IS.Exclusive_Data |      470448     72.32%     72.32% |      141386     21.74%     94.06% |       10024      1.54%     95.60% |       28617      4.40%    100.00%
system.ruby.L1Cache_Controller.IS.Exclusive_Data::total       650475                      
system.ruby.L1Cache_Controller.SS.Load   |         140      5.24%      5.24% |        2467     92.36%     97.60% |          24      0.90%     98.50% |          40      1.50%    100.00%
system.ruby.L1Cache_Controller.SS.Load::total         2671                      
system.ruby.L1Cache_Controller.SS.Ifetch |        3283     43.87%     43.87% |        1769     23.64%     67.51% |        1581     21.13%     88.64% |         850     11.36%    100.00%
system.ruby.L1Cache_Controller.SS.Ifetch::total         7483                      
system.ruby.L1Cache_Controller.SS.Store  |           3     20.00%     20.00% |          12     80.00%    100.00% |           0      0.00%    100.00% |           0      0.00%    100.00%
system.ruby.L1Cache_Controller.SS.Store::total           15                      
system.ruby.L1Cache_Controller.SS.Ack    |        5283     16.98%     16.98% |       14281     45.90%     62.88% |        7486     24.06%     86.94% |        4065     13.06%    100.00%
system.ruby.L1Cache_Controller.SS.Ack::total        31115                      
system.ruby.L1Cache_Controller.SS.Shared_Ack |        5199     40.88%     40.88% |        2531     19.90%     60.78% |        3539     27.83%     88.61% |        1449     11.39%    100.00%
system.ruby.L1Cache_Controller.SS.Shared_Ack::total        12718                      
system.ruby.L1Cache_Controller.SS.All_acks |       15250     26.29%     26.29% |       20366     35.11%     61.40% |       14715     25.37%     86.77% |        7674     13.23%    100.00%
system.ruby.L1Cache_Controller.SS.All_acks::total        58005                      
system.ruby.L1Cache_Controller.SS.All_acks_no_sharers |           4     23.53%     23.53% |          13     76.47%    100.00% |           0      0.00%    100.00% |           0      0.00%    100.00%
system.ruby.L1Cache_Controller.SS.All_acks_no_sharers::total           17                      
system.ruby.L1Cache_Controller.OI.Ifetch |           0      0.00%      0.00% |           1    100.00%    100.00% |           0      0.00%    100.00% |           0      0.00%    100.00%
system.ruby.L1Cache_Controller.OI.Ifetch::total            1                      
system.ruby.L1Cache_Controller.OI.Writeback_Ack |         555     24.19%     24.19% |        1724     75.15%     99.35% |           0      0.00%     99.35% |          15      0.65%    100.00%
system.ruby.L1Cache_Controller.OI.Writeback_Ack::total         2294                      
system.ruby.L1Cache_Controller.MI.Load   |        1783     97.43%     97.43% |          47      2.57%    100.00% |           0      0.00%    100.00% |           0      0.00%    100.00%
system.ruby.L1Cache_Controller.MI.Load::total         1830                      
system.ruby.L1Cache_Controller.MI.Store  |         204     96.68%     96.68% |           7      3.32%    100.00% |           0      0.00%    100.00% |           0      0.00%    100.00%
system.ruby.L1Cache_Controller.MI.Store::total          211                      
system.ruby.L1Cache_Controller.MI.Writeback_Ack |      829179     88.27%     88.27% |      110210     11.73%    100.00% |           2      0.00%    100.00% |          26      0.00%    100.00%
system.ruby.L1Cache_Controller.MI.Writeback_Ack::total       939417                      
system.ruby.L1Cache_Controller.ST.Complete_L2_to_L1 |       67939     38.68%     38.68% |       49560     28.22%     66.90% |       34859     19.85%     86.75% |       23271     13.25%    100.00%
system.ruby.L1Cache_Controller.ST.Complete_L2_to_L1::total       175629                      
system.ruby.L1Cache_Controller.OT.Complete_L2_to_L1 |         230      0.43%      0.43% |       30512     57.52%     57.96% |        3904      7.36%     65.32% |       18398     34.68%    100.00%
system.ruby.L1Cache_Controller.OT.Complete_L2_to_L1::total        53044                      
system.ruby.L1Cache_Controller.MT.Load   |          61    100.00%    100.00% |           0      0.00%    100.00% |           0      0.00%    100.00% |           0      0.00%    100.00%
system.ruby.L1Cache_Controller.MT.Load::total           61                      
system.ruby.L1Cache_Controller.MT.Store  |          15    100.00%    100.00% |           0      0.00%    100.00% |           0      0.00%    100.00% |           0      0.00%    100.00%
system.ruby.L1Cache_Controller.MT.Store::total           15                      
system.ruby.L1Cache_Controller.MT.Complete_L2_to_L1 |      439388     91.45%     91.45% |       34020      7.08%     98.53% |        1255      0.26%     98.79% |        5802      1.21%    100.00%
system.ruby.L1Cache_Controller.MT.Complete_L2_to_L1::total       480465                      
system.ruby.L1Cache_Controller.MMT.Load  |         143    100.00%    100.00% |           0      0.00%    100.00% |           0      0.00%    100.00% |           0      0.00%    100.00%
system.ruby.L1Cache_Controller.MMT.Load::total          143                      
system.ruby.L1Cache_Controller.MMT.Store |         268    100.00%    100.00% |           0      0.00%    100.00% |           0      0.00%    100.00% |           0      0.00%    100.00%
system.ruby.L1Cache_Controller.MMT.Store::total          268                      
system.ruby.L1Cache_Controller.MMT.Complete_L2_to_L1 |      651320     82.41%     82.41% |      115131     14.57%     96.97% |        5926      0.75%     97.72% |       18002      2.28%    100.00%
system.ruby.L1Cache_Controller.MMT.Complete_L2_to_L1::total       790379                      

---------- End Simulation Statistics   ----------
