
---------- Begin Simulation Statistics ----------
sim_seconds                                  2.333996                       # Number of seconds simulated
sim_ticks                                2333995881500                       # Number of ticks simulated
final_tick                               57279867084501                       # Number of ticks from beginning of simulation (restored from checkpoints and never reset)
sim_freq                                 1000000000000                       # Frequency of simulated ticks
host_inst_rate                                 129090                       # Simulator instruction rate (inst/s)
host_op_rate                                   233995                       # Simulator op (including micro ops) rate (op/s)
host_tick_rate                              229461300                       # Simulator tick rate (ticks/s)
host_mem_usage                                1842644                       # Number of bytes of host memory used
host_seconds                                 10171.63                       # Real time elapsed on the host
sim_insts                                  1313059033                       # Number of instructions simulated
sim_ops                                    2380105914                       # Number of ops (including micro ops) simulated
system.voltage_domain.voltage                       1                       # Voltage in Volts
system.clk_domain.clock                          1000                       # Clock period in ticks
system.mem_ctrls.bytes_read::ruby.dir_cntrl0     78681216                       # Number of bytes read from this memory
system.mem_ctrls.bytes_read::total           78681216                       # Number of bytes read from this memory
system.mem_ctrls.bytes_written::ruby.dir_cntrl0     47191936                       # Number of bytes written to this memory
system.mem_ctrls.bytes_written::total        47191936                       # Number of bytes written to this memory
system.mem_ctrls.num_reads::ruby.dir_cntrl0      1229394                       # Number of read requests responded to by this memory
system.mem_ctrls.num_reads::total             1229394                       # Number of read requests responded to by this memory
system.mem_ctrls.num_writes::ruby.dir_cntrl0       737374                       # Number of write requests responded to by this memory
system.mem_ctrls.num_writes::total             737374                       # Number of write requests responded to by this memory
system.mem_ctrls.bw_read::ruby.dir_cntrl0     33710949                       # Total read bandwidth from this memory (bytes/s)
system.mem_ctrls.bw_read::total              33710949                       # Total read bandwidth from this memory (bytes/s)
system.mem_ctrls.bw_write::ruby.dir_cntrl0     20219374                       # Write bandwidth from this memory (bytes/s)
system.mem_ctrls.bw_write::total             20219374                       # Write bandwidth from this memory (bytes/s)
system.mem_ctrls.bw_total::ruby.dir_cntrl0     53930323                       # Total bandwidth to/from this memory (bytes/s)
system.mem_ctrls.bw_total::total             53930323                       # Total bandwidth to/from this memory (bytes/s)
system.mem_ctrls.readReqs                     1229394                       # Number of read requests accepted
system.mem_ctrls.writeReqs                     737374                       # Number of write requests accepted
system.mem_ctrls.readBursts                   1229394                       # Number of DRAM read bursts, including those serviced by the write queue
system.mem_ctrls.writeBursts                   737374                       # Number of DRAM write bursts, including those merged in the write queue
system.mem_ctrls.bytesReadDRAM               78636032                       # Total number of bytes read from DRAM
system.mem_ctrls.bytesReadWrQ                   45184                       # Total number of bytes read from write queue
system.mem_ctrls.bytesWritten                47192640                       # Total number of bytes written to DRAM
system.mem_ctrls.bytesReadSys                78681216                       # Total read bytes from the system interface side
system.mem_ctrls.bytesWrittenSys             47191936                       # Total written bytes from the system interface side
system.mem_ctrls.servicedByWrQ                    706                       # Number of DRAM read bursts serviced by the write queue
system.mem_ctrls.mergedWrBursts                     1                       # Number of DRAM write bursts merged with an existing one
system.mem_ctrls.neitherReadNorWriteReqs            0                       # Number of requests that are neither read nor write
system.mem_ctrls.perBankRdBursts::0             77549                       # Per bank write bursts
system.mem_ctrls.perBankRdBursts::1             77626                       # Per bank write bursts
system.mem_ctrls.perBankRdBursts::2             75545                       # Per bank write bursts
system.mem_ctrls.perBankRdBursts::3             75052                       # Per bank write bursts
system.mem_ctrls.perBankRdBursts::4             76834                       # Per bank write bursts
system.mem_ctrls.perBankRdBursts::5             79532                       # Per bank write bursts
system.mem_ctrls.perBankRdBursts::6             75592                       # Per bank write bursts
system.mem_ctrls.perBankRdBursts::7             78211                       # Per bank write bursts
system.mem_ctrls.perBankRdBursts::8             78902                       # Per bank write bursts
system.mem_ctrls.perBankRdBursts::9             75435                       # Per bank write bursts
system.mem_ctrls.perBankRdBursts::10            75640                       # Per bank write bursts
system.mem_ctrls.perBankRdBursts::11            77907                       # Per bank write bursts
system.mem_ctrls.perBankRdBursts::12            74356                       # Per bank write bursts
system.mem_ctrls.perBankRdBursts::13            75869                       # Per bank write bursts
system.mem_ctrls.perBankRdBursts::14            77143                       # Per bank write bursts
system.mem_ctrls.perBankRdBursts::15            77495                       # Per bank write bursts
system.mem_ctrls.perBankWrBursts::0             45911                       # Per bank write bursts
system.mem_ctrls.perBankWrBursts::1             46370                       # Per bank write bursts
system.mem_ctrls.perBankWrBursts::2             45503                       # Per bank write bursts
system.mem_ctrls.perBankWrBursts::3             45351                       # Per bank write bursts
system.mem_ctrls.perBankWrBursts::4             46461                       # Per bank write bursts
system.mem_ctrls.perBankWrBursts::5             46933                       # Per bank write bursts
system.mem_ctrls.perBankWrBursts::6             46151                       # Per bank write bursts
system.mem_ctrls.perBankWrBursts::7             47228                       # Per bank write bursts
system.mem_ctrls.perBankWrBursts::8             46837                       # Per bank write bursts
system.mem_ctrls.perBankWrBursts::9             45845                       # Per bank write bursts
system.mem_ctrls.perBankWrBursts::10            45825                       # Per bank write bursts
system.mem_ctrls.perBankWrBursts::11            45783                       # Per bank write bursts
system.mem_ctrls.perBankWrBursts::12            45072                       # Per bank write bursts
system.mem_ctrls.perBankWrBursts::13            45522                       # Per bank write bursts
system.mem_ctrls.perBankWrBursts::14            46000                       # Per bank write bursts
system.mem_ctrls.perBankWrBursts::15            46593                       # Per bank write bursts
system.mem_ctrls.numRdRetry                         0                       # Number of times read queue was full causing retry
system.mem_ctrls.numWrRetry                         0                       # Number of times write queue was full causing retry
system.mem_ctrls.totGap                  2333995816500                       # Total gap between requests
system.mem_ctrls.readPktSize::0                     0                       # Read request sizes (log2)
system.mem_ctrls.readPktSize::1                     0                       # Read request sizes (log2)
system.mem_ctrls.readPktSize::2                     0                       # Read request sizes (log2)
system.mem_ctrls.readPktSize::3                     0                       # Read request sizes (log2)
system.mem_ctrls.readPktSize::4                     0                       # Read request sizes (log2)
system.mem_ctrls.readPktSize::5                     0                       # Read request sizes (log2)
system.mem_ctrls.readPktSize::6               1229394                       # Read request sizes (log2)
system.mem_ctrls.writePktSize::0                    0                       # Write request sizes (log2)
system.mem_ctrls.writePktSize::1                    0                       # Write request sizes (log2)
system.mem_ctrls.writePktSize::2                    0                       # Write request sizes (log2)
system.mem_ctrls.writePktSize::3                    0                       # Write request sizes (log2)
system.mem_ctrls.writePktSize::4                    0                       # Write request sizes (log2)
system.mem_ctrls.writePktSize::5                    0                       # Write request sizes (log2)
system.mem_ctrls.writePktSize::6               737374                       # Write request sizes (log2)
system.mem_ctrls.rdQLenPdf::0                 1227461                       # What read queue length does an incoming req see
system.mem_ctrls.rdQLenPdf::1                    1222                       # What read queue length does an incoming req see
system.mem_ctrls.rdQLenPdf::2                       5                       # What read queue length does an incoming req see
system.mem_ctrls.rdQLenPdf::3                       0                       # What read queue length does an incoming req see
system.mem_ctrls.rdQLenPdf::4                       0                       # What read queue length does an incoming req see
system.mem_ctrls.rdQLenPdf::5                       0                       # What read queue length does an incoming req see
system.mem_ctrls.rdQLenPdf::6                       0                       # What read queue length does an incoming req see
system.mem_ctrls.rdQLenPdf::7                       0                       # What read queue length does an incoming req see
system.mem_ctrls.rdQLenPdf::8                       0                       # What read queue length does an incoming req see
system.mem_ctrls.rdQLenPdf::9                       0                       # What read queue length does an incoming req see
system.mem_ctrls.rdQLenPdf::10                      0                       # What read queue length does an incoming req see
system.mem_ctrls.rdQLenPdf::11                      0                       # What read queue length does an incoming req see
system.mem_ctrls.rdQLenPdf::12                      0                       # What read queue length does an incoming req see
system.mem_ctrls.rdQLenPdf::13                      0                       # What read queue length does an incoming req see
system.mem_ctrls.rdQLenPdf::14                      0                       # What read queue length does an incoming req see
system.mem_ctrls.rdQLenPdf::15                      0                       # What read queue length does an incoming req see
system.mem_ctrls.rdQLenPdf::16                      0                       # What read queue length does an incoming req see
system.mem_ctrls.rdQLenPdf::17                      0                       # What read queue length does an incoming req see
system.mem_ctrls.rdQLenPdf::18                      0                       # What read queue length does an incoming req see
system.mem_ctrls.rdQLenPdf::19                      0                       # What read queue length does an incoming req see
system.mem_ctrls.rdQLenPdf::20                      0                       # What read queue length does an incoming req see
system.mem_ctrls.rdQLenPdf::21                      0                       # What read queue length does an incoming req see
system.mem_ctrls.rdQLenPdf::22                      0                       # What read queue length does an incoming req see
system.mem_ctrls.rdQLenPdf::23                      0                       # What read queue length does an incoming req see
system.mem_ctrls.rdQLenPdf::24                      0                       # What read queue length does an incoming req see
system.mem_ctrls.rdQLenPdf::25                      0                       # What read queue length does an incoming req see
system.mem_ctrls.rdQLenPdf::26                      0                       # What read queue length does an incoming req see
system.mem_ctrls.rdQLenPdf::27                      0                       # What read queue length does an incoming req see
system.mem_ctrls.rdQLenPdf::28                      0                       # What read queue length does an incoming req see
system.mem_ctrls.rdQLenPdf::29                      0                       # What read queue length does an incoming req see
system.mem_ctrls.rdQLenPdf::30                      0                       # What read queue length does an incoming req see
system.mem_ctrls.rdQLenPdf::31                      0                       # What read queue length does an incoming req see
system.mem_ctrls.wrQLenPdf::0                       0                       # What write queue length does an incoming req see
system.mem_ctrls.wrQLenPdf::1                       0                       # What write queue length does an incoming req see
system.mem_ctrls.wrQLenPdf::2                       0                       # What write queue length does an incoming req see
system.mem_ctrls.wrQLenPdf::3                       0                       # What write queue length does an incoming req see
system.mem_ctrls.wrQLenPdf::4                       0                       # What write queue length does an incoming req see
system.mem_ctrls.wrQLenPdf::5                       0                       # What write queue length does an incoming req see
system.mem_ctrls.wrQLenPdf::6                       0                       # What write queue length does an incoming req see
system.mem_ctrls.wrQLenPdf::7                       0                       # What write queue length does an incoming req see
system.mem_ctrls.wrQLenPdf::8                       0                       # What write queue length does an incoming req see
system.mem_ctrls.wrQLenPdf::9                       0                       # What write queue length does an incoming req see
system.mem_ctrls.wrQLenPdf::10                      0                       # What write queue length does an incoming req see
system.mem_ctrls.wrQLenPdf::11                      0                       # What write queue length does an incoming req see
system.mem_ctrls.wrQLenPdf::12                      0                       # What write queue length does an incoming req see
system.mem_ctrls.wrQLenPdf::13                      0                       # What write queue length does an incoming req see
system.mem_ctrls.wrQLenPdf::14                      0                       # What write queue length does an incoming req see
system.mem_ctrls.wrQLenPdf::15                  26237                       # What write queue length does an incoming req see
system.mem_ctrls.wrQLenPdf::16                  27483                       # What write queue length does an incoming req see
system.mem_ctrls.wrQLenPdf::17                  34852                       # What write queue length does an incoming req see
system.mem_ctrls.wrQLenPdf::18                  43626                       # What write queue length does an incoming req see
system.mem_ctrls.wrQLenPdf::19                  43996                       # What write queue length does an incoming req see
system.mem_ctrls.wrQLenPdf::20                  44500                       # What write queue length does an incoming req see
system.mem_ctrls.wrQLenPdf::21                  44461                       # What write queue length does an incoming req see
system.mem_ctrls.wrQLenPdf::22                  43539                       # What write queue length does an incoming req see
system.mem_ctrls.wrQLenPdf::23                  43252                       # What write queue length does an incoming req see
system.mem_ctrls.wrQLenPdf::24                  43069                       # What write queue length does an incoming req see
system.mem_ctrls.wrQLenPdf::25                  42954                       # What write queue length does an incoming req see
system.mem_ctrls.wrQLenPdf::26                  42984                       # What write queue length does an incoming req see
system.mem_ctrls.wrQLenPdf::27                  42951                       # What write queue length does an incoming req see
system.mem_ctrls.wrQLenPdf::28                  42757                       # What write queue length does an incoming req see
system.mem_ctrls.wrQLenPdf::29                  42759                       # What write queue length does an incoming req see
system.mem_ctrls.wrQLenPdf::30                  42632                       # What write queue length does an incoming req see
system.mem_ctrls.wrQLenPdf::31                  42615                       # What write queue length does an incoming req see
system.mem_ctrls.wrQLenPdf::32                  42615                       # What write queue length does an incoming req see
system.mem_ctrls.wrQLenPdf::33                     76                       # What write queue length does an incoming req see
system.mem_ctrls.wrQLenPdf::34                     11                       # What write queue length does an incoming req see
system.mem_ctrls.wrQLenPdf::35                      4                       # What write queue length does an incoming req see
system.mem_ctrls.wrQLenPdf::36                      0                       # What write queue length does an incoming req see
system.mem_ctrls.wrQLenPdf::37                      0                       # What write queue length does an incoming req see
system.mem_ctrls.wrQLenPdf::38                      0                       # What write queue length does an incoming req see
system.mem_ctrls.wrQLenPdf::39                      0                       # What write queue length does an incoming req see
system.mem_ctrls.wrQLenPdf::40                      0                       # What write queue length does an incoming req see
system.mem_ctrls.wrQLenPdf::41                      0                       # What write queue length does an incoming req see
system.mem_ctrls.wrQLenPdf::42                      0                       # What write queue length does an incoming req see
system.mem_ctrls.wrQLenPdf::43                      0                       # What write queue length does an incoming req see
system.mem_ctrls.wrQLenPdf::44                      0                       # What write queue length does an incoming req see
system.mem_ctrls.wrQLenPdf::45                      0                       # What write queue length does an incoming req see
system.mem_ctrls.wrQLenPdf::46                      0                       # What write queue length does an incoming req see
system.mem_ctrls.wrQLenPdf::47                      0                       # What write queue length does an incoming req see
system.mem_ctrls.wrQLenPdf::48                      0                       # What write queue length does an incoming req see
system.mem_ctrls.wrQLenPdf::49                      0                       # What write queue length does an incoming req see
system.mem_ctrls.wrQLenPdf::50                      0                       # What write queue length does an incoming req see
system.mem_ctrls.wrQLenPdf::51                      0                       # What write queue length does an incoming req see
system.mem_ctrls.wrQLenPdf::52                      0                       # What write queue length does an incoming req see
system.mem_ctrls.wrQLenPdf::53                      0                       # What write queue length does an incoming req see
system.mem_ctrls.wrQLenPdf::54                      0                       # What write queue length does an incoming req see
system.mem_ctrls.wrQLenPdf::55                      0                       # What write queue length does an incoming req see
system.mem_ctrls.wrQLenPdf::56                      0                       # What write queue length does an incoming req see
system.mem_ctrls.wrQLenPdf::57                      0                       # What write queue length does an incoming req see
system.mem_ctrls.wrQLenPdf::58                      0                       # What write queue length does an incoming req see
system.mem_ctrls.wrQLenPdf::59                      0                       # What write queue length does an incoming req see
system.mem_ctrls.wrQLenPdf::60                      0                       # What write queue length does an incoming req see
system.mem_ctrls.wrQLenPdf::61                      0                       # What write queue length does an incoming req see
system.mem_ctrls.wrQLenPdf::62                      0                       # What write queue length does an incoming req see
system.mem_ctrls.wrQLenPdf::63                      0                       # What write queue length does an incoming req see
system.mem_ctrls.bytesPerActivate::samples       803425                       # Bytes accessed per row activation
system.mem_ctrls.bytesPerActivate::mean    156.615490                       # Bytes accessed per row activation
system.mem_ctrls.bytesPerActivate::gmean   109.222184                       # Bytes accessed per row activation
system.mem_ctrls.bytesPerActivate::stdev   186.345315                       # Bytes accessed per row activation
system.mem_ctrls.bytesPerActivate::0-127       462355     57.55%     57.55% # Bytes accessed per row activation
system.mem_ctrls.bytesPerActivate::128-255       193046     24.03%     81.58% # Bytes accessed per row activation
system.mem_ctrls.bytesPerActivate::256-383        88967     11.07%     92.65% # Bytes accessed per row activation
system.mem_ctrls.bytesPerActivate::384-511        13950      1.74%     94.39% # Bytes accessed per row activation
system.mem_ctrls.bytesPerActivate::512-639        10206      1.27%     95.66% # Bytes accessed per row activation
system.mem_ctrls.bytesPerActivate::640-767         6902      0.86%     96.52% # Bytes accessed per row activation
system.mem_ctrls.bytesPerActivate::768-895         6626      0.82%     97.34% # Bytes accessed per row activation
system.mem_ctrls.bytesPerActivate::896-1023         4740      0.59%     97.93% # Bytes accessed per row activation
system.mem_ctrls.bytesPerActivate::1024-1151        16633      2.07%    100.00% # Bytes accessed per row activation
system.mem_ctrls.bytesPerActivate::total       803425                       # Bytes accessed per row activation
system.mem_ctrls.rdPerTurnAround::samples        42611                       # Reads before turning the bus around for writes
system.mem_ctrls.rdPerTurnAround::mean      28.868203                       # Reads before turning the bus around for writes
system.mem_ctrls.rdPerTurnAround::stdev     46.182171                       # Reads before turning the bus around for writes
system.mem_ctrls.rdPerTurnAround::0-255         42507     99.76%     99.76% # Reads before turning the bus around for writes
system.mem_ctrls.rdPerTurnAround::256-511           85      0.20%     99.96% # Reads before turning the bus around for writes
system.mem_ctrls.rdPerTurnAround::512-767            9      0.02%     99.98% # Reads before turning the bus around for writes
system.mem_ctrls.rdPerTurnAround::768-1023            4      0.01%     99.99% # Reads before turning the bus around for writes
system.mem_ctrls.rdPerTurnAround::1024-1279            2      0.00%     99.99% # Reads before turning the bus around for writes
system.mem_ctrls.rdPerTurnAround::1536-1791            1      0.00%     99.99% # Reads before turning the bus around for writes
system.mem_ctrls.rdPerTurnAround::1792-2047            2      0.00%    100.00% # Reads before turning the bus around for writes
system.mem_ctrls.rdPerTurnAround::6400-6655            1      0.00%    100.00% # Reads before turning the bus around for writes
system.mem_ctrls.rdPerTurnAround::total         42611                       # Reads before turning the bus around for writes
system.mem_ctrls.wrPerTurnAround::samples        42611                       # Writes before turning the bus around for reads
system.mem_ctrls.wrPerTurnAround::mean      17.305039                       # Writes before turning the bus around for reads
system.mem_ctrls.wrPerTurnAround::gmean     17.274045                       # Writes before turning the bus around for reads
system.mem_ctrls.wrPerTurnAround::stdev      1.035410                       # Writes before turning the bus around for reads
system.mem_ctrls.wrPerTurnAround::16            15227     35.73%     35.73% # Writes before turning the bus around for reads
system.mem_ctrls.wrPerTurnAround::17             1059      2.49%     38.22% # Writes before turning the bus around for reads
system.mem_ctrls.wrPerTurnAround::18            25015     58.71%     96.93% # Writes before turning the bus around for reads
system.mem_ctrls.wrPerTurnAround::19              935      2.19%     99.12% # Writes before turning the bus around for reads
system.mem_ctrls.wrPerTurnAround::20              277      0.65%     99.77% # Writes before turning the bus around for reads
system.mem_ctrls.wrPerTurnAround::21               47      0.11%     99.88% # Writes before turning the bus around for reads
system.mem_ctrls.wrPerTurnAround::22               27      0.06%     99.94% # Writes before turning the bus around for reads
system.mem_ctrls.wrPerTurnAround::23                9      0.02%     99.96% # Writes before turning the bus around for reads
system.mem_ctrls.wrPerTurnAround::24                8      0.02%     99.98% # Writes before turning the bus around for reads
system.mem_ctrls.wrPerTurnAround::25                2      0.00%     99.99% # Writes before turning the bus around for reads
system.mem_ctrls.wrPerTurnAround::26                4      0.01%    100.00% # Writes before turning the bus around for reads
system.mem_ctrls.wrPerTurnAround::41                1      0.00%    100.00% # Writes before turning the bus around for reads
system.mem_ctrls.wrPerTurnAround::total         42611                       # Writes before turning the bus around for reads
system.mem_ctrls.totQLat                  10457640741                       # Total ticks spent queuing
system.mem_ctrls.totMemAccLat             33495540741                       # Total ticks spent from burst creation until serviced by the DRAM
system.mem_ctrls.totBusLat                 6143440000                       # Total ticks spent in databus transfers
system.mem_ctrls.avgQLat                      8511.23                       # Average queueing delay per DRAM burst
system.mem_ctrls.avgBusLat                    5000.00                       # Average bus latency per DRAM burst
system.mem_ctrls.avgMemAccLat                27261.23                       # Average memory access latency per DRAM burst
system.mem_ctrls.avgRdBW                        33.69                       # Average DRAM read bandwidth in MiByte/s
system.mem_ctrls.avgWrBW                        20.22                       # Average achieved write bandwidth in MiByte/s
system.mem_ctrls.avgRdBWSys                     33.71                       # Average system read bandwidth in MiByte/s
system.mem_ctrls.avgWrBWSys                     20.22                       # Average system write bandwidth in MiByte/s
system.mem_ctrls.peakBW                      12800.00                       # Theoretical peak bandwidth in MiByte/s
system.mem_ctrls.busUtil                         0.42                       # Data bus utilization in percentage
system.mem_ctrls.busUtilRead                     0.26                       # Data bus utilization in percentage for reads
system.mem_ctrls.busUtilWrite                    0.16                       # Data bus utilization in percentage for writes
system.mem_ctrls.avgRdQLen                       1.00                       # Average read queue length when enqueuing
system.mem_ctrls.avgWrQLen                      24.55                       # Average write queue length when enqueuing
system.mem_ctrls.readRowHits                   931560                       # Number of row buffer hits during reads
system.mem_ctrls.writeRowHits                  231089                       # Number of row buffer hits during writes
system.mem_ctrls.readRowHitRate                 75.82                       # Row buffer hit rate for reads
system.mem_ctrls.writeRowHitRate                31.34                       # Row buffer hit rate for writes
system.mem_ctrls.avgGap                    1186716.39                       # Average gap between requests
system.mem_ctrls.pageHitRate                    59.14                       # Row buffer hit rate, read and write combined
system.mem_ctrls_0.actEnergy               3062412360                       # Energy for activate commands per rank (pJ)
system.mem_ctrls_0.preEnergy               1670959125                       # Energy for precharge commands per rank (pJ)
system.mem_ctrls_0.readEnergy              4954240200                       # Energy for read commands per rank (pJ)
system.mem_ctrls_0.writeEnergy             2400917760                       # Energy for write commands per rank (pJ)
system.mem_ctrls_0.refreshEnergy         153149792640                       # Energy for refresh commands per rank (pJ)
system.mem_ctrls_0.actBackEnergy         309739930020                       # Energy for active background per rank (pJ)
system.mem_ctrls_0.preBackEnergy         1135167945000                       # Energy for precharge background per rank (pJ)
system.mem_ctrls_0.totalEnergy           1610146197105                       # Total energy per rank (pJ)
system.mem_ctrls_0.averagePower            686.693132                       # Core power per rank (mW)
system.mem_ctrls_0.memoryStateTime::IDLE 1881764625751                       # Time in different power states
system.mem_ctrls_0.memoryStateTime::REF   77937340000                       # Time in different power states
system.mem_ctrls_0.memoryStateTime::PRE_PDN            0                       # Time in different power states
system.mem_ctrls_0.memoryStateTime::ACT  374298757249                       # Time in different power states
system.mem_ctrls_0.memoryStateTime::ACT_PDN            0                       # Time in different power states
system.mem_ctrls_1.actEnergy               3063999960                       # Energy for activate commands per rank (pJ)
system.mem_ctrls_1.preEnergy               1671825375                       # Energy for precharge commands per rank (pJ)
system.mem_ctrls_1.readEnergy              4922837400                       # Energy for read commands per rank (pJ)
system.mem_ctrls_1.writeEnergy             2383784640                       # Energy for write commands per rank (pJ)
system.mem_ctrls_1.refreshEnergy         153149792640                       # Energy for refresh commands per rank (pJ)
system.mem_ctrls_1.actBackEnergy         308953647225                       # Energy for active background per rank (pJ)
system.mem_ctrls_1.preBackEnergy         1135857678000                       # Energy for precharge background per rank (pJ)
system.mem_ctrls_1.totalEnergy           1610003565240                       # Total energy per rank (pJ)
system.mem_ctrls_1.averagePower            686.632297                       # Core power per rank (mW)
system.mem_ctrls_1.memoryStateTime::IDLE 1882164587001                       # Time in different power states
system.mem_ctrls_1.memoryStateTime::REF   77937340000                       # Time in different power states
system.mem_ctrls_1.memoryStateTime::PRE_PDN            0                       # Time in different power states
system.mem_ctrls_1.memoryStateTime::ACT  373899428499                       # Time in different power states
system.mem_ctrls_1.memoryStateTime::ACT_PDN            0                       # Time in different power states
system.cpu_voltage_domain.voltage                   1                       # Voltage in Volts
system.cpu_clk_domain.clock                       500                       # Clock period in ticks
system.cpu0.apic_clk_domain.clock                8000                       # Clock period in ticks
system.cpu0.numCycles                      4669937559                       # number of cpu cycles simulated
system.cpu0.numWorkItemsStarted                     0                       # number of work items this cpu started
system.cpu0.numWorkItemsCompleted                   0                       # number of work items this cpu completed
system.cpu0.kern.inst.arm                           0                       # number of arm instructions executed
system.cpu0.kern.inst.quiesce                       0                       # number of quiesce instructions executed
system.cpu0.committedInsts                    3943376                       # Number of instructions committed
system.cpu0.committedOps                      8143192                       # Number of ops (including micro ops) committed
system.cpu0.num_int_alu_accesses              7921143                       # Number of integer alu accesses
system.cpu0.num_fp_alu_accesses                   372                       # Number of float alu accesses
system.cpu0.num_func_calls                     189760                       # number of times a function call or return occured
system.cpu0.num_conditional_control_insts       632069                       # number of instructions that are conditional controls
system.cpu0.num_int_insts                     7921143                       # number of integer instructions
system.cpu0.num_fp_insts                          372                       # number of float instructions
system.cpu0.num_int_register_reads           15458817                       # number of times the integer registers were read
system.cpu0.num_int_register_writes           6523177                       # number of times the integer registers were written
system.cpu0.num_fp_register_reads                 596                       # number of times the floating registers were read
system.cpu0.num_fp_register_writes                261                       # number of times the floating registers were written
system.cpu0.num_cc_register_reads             4892801                       # number of times the CC registers were read
system.cpu0.num_cc_register_writes            3004524                       # number of times the CC registers were written
system.cpu0.num_mem_refs                      1667005                       # number of memory refs
system.cpu0.num_load_insts                    1030991                       # Number of load instructions
system.cpu0.num_store_insts                    636014                       # Number of store instructions
system.cpu0.num_idle_cycles              4652161538.383826                       # Number of idle cycles
system.cpu0.num_busy_cycles              17776020.616174                       # Number of busy cycles
system.cpu0.not_idle_fraction                0.003806                       # Percentage of non-idle cycles
system.cpu0.idle_fraction                    0.996194                       # Percentage of idle cycles
system.cpu0.Branches                           886636                       # Number of branches fetched
system.cpu0.op_class::No_OpClass                81015      0.99%      0.99% # Class of executed instruction
system.cpu0.op_class::IntAlu                  6359863     78.10%     79.09% # Class of executed instruction
system.cpu0.op_class::IntMult                    9341      0.11%     79.21% # Class of executed instruction
system.cpu0.op_class::IntDiv                    25811      0.32%     79.53% # Class of executed instruction
system.cpu0.op_class::FloatAdd                    244      0.00%     79.53% # Class of executed instruction
system.cpu0.op_class::FloatCmp                      0      0.00%     79.53% # Class of executed instruction
system.cpu0.op_class::FloatCvt                      0      0.00%     79.53% # Class of executed instruction
system.cpu0.op_class::FloatMult                     0      0.00%     79.53% # Class of executed instruction
system.cpu0.op_class::FloatDiv                      0      0.00%     79.53% # Class of executed instruction
system.cpu0.op_class::FloatSqrt                     0      0.00%     79.53% # Class of executed instruction
system.cpu0.op_class::SimdAdd                       0      0.00%     79.53% # Class of executed instruction
system.cpu0.op_class::SimdAddAcc                    0      0.00%     79.53% # Class of executed instruction
system.cpu0.op_class::SimdAlu                       0      0.00%     79.53% # Class of executed instruction
system.cpu0.op_class::SimdCmp                       0      0.00%     79.53% # Class of executed instruction
system.cpu0.op_class::SimdCvt                       0      0.00%     79.53% # Class of executed instruction
system.cpu0.op_class::SimdMisc                      0      0.00%     79.53% # Class of executed instruction
system.cpu0.op_class::SimdMult                      0      0.00%     79.53% # Class of executed instruction
system.cpu0.op_class::SimdMultAcc                   0      0.00%     79.53% # Class of executed instruction
system.cpu0.op_class::SimdShift                     0      0.00%     79.53% # Class of executed instruction
system.cpu0.op_class::SimdShiftAcc                  0      0.00%     79.53% # Class of executed instruction
system.cpu0.op_class::SimdSqrt                      0      0.00%     79.53% # Class of executed instruction
system.cpu0.op_class::SimdFloatAdd                  0      0.00%     79.53% # Class of executed instruction
system.cpu0.op_class::SimdFloatAlu                  0      0.00%     79.53% # Class of executed instruction
system.cpu0.op_class::SimdFloatCmp                  0      0.00%     79.53% # Class of executed instruction
system.cpu0.op_class::SimdFloatCvt                  0      0.00%     79.53% # Class of executed instruction
system.cpu0.op_class::SimdFloatDiv                  0      0.00%     79.53% # Class of executed instruction
system.cpu0.op_class::SimdFloatMisc                 0      0.00%     79.53% # Class of executed instruction
system.cpu0.op_class::SimdFloatMult                 0      0.00%     79.53% # Class of executed instruction
system.cpu0.op_class::SimdFloatMultAcc              0      0.00%     79.53% # Class of executed instruction
system.cpu0.op_class::SimdFloatSqrt                 0      0.00%     79.53% # Class of executed instruction
system.cpu0.op_class::MemRead                 1030991     12.66%     92.19% # Class of executed instruction
system.cpu0.op_class::MemWrite                 636014      7.81%    100.00% # Class of executed instruction
system.cpu0.op_class::IprAccess                     0      0.00%    100.00% # Class of executed instruction
system.cpu0.op_class::InstPrefetch                  0      0.00%    100.00% # Class of executed instruction
system.cpu0.op_class::total                   8143279                       # Class of executed instruction
system.cpu1.apic_clk_domain.clock                8000                       # Clock period in ticks
system.cpu1.numCycles                      4664993331                       # number of cpu cycles simulated
system.cpu1.numWorkItemsStarted                     0                       # number of work items this cpu started
system.cpu1.numWorkItemsCompleted                   0                       # number of work items this cpu completed
system.cpu1.kern.inst.arm                           0                       # number of arm instructions executed
system.cpu1.kern.inst.quiesce                       0                       # number of quiesce instructions executed
system.cpu1.committedInsts                  478060917                       # Number of instructions committed
system.cpu1.committedOps                    867617303                       # Number of ops (including micro ops) committed
system.cpu1.num_int_alu_accesses            566326620                       # Number of integer alu accesses
system.cpu1.num_fp_alu_accesses             404553636                       # Number of float alu accesses
system.cpu1.num_func_calls                     769414                       # number of times a function call or return occured
system.cpu1.num_conditional_control_insts     59895935                       # number of instructions that are conditional controls
system.cpu1.num_int_insts                   566326620                       # number of integer instructions
system.cpu1.num_fp_insts                    404553636                       # number of float instructions
system.cpu1.num_int_register_reads         1104504548                       # number of times the integer registers were read
system.cpu1.num_int_register_writes         392349644                       # number of times the integer registers were written
system.cpu1.num_fp_register_reads           493043634                       # number of times the floating registers were read
system.cpu1.num_fp_register_writes          385112979                       # number of times the floating registers were written
system.cpu1.num_cc_register_reads           351839050                       # number of times the CC registers were read
system.cpu1.num_cc_register_writes          198605037                       # number of times the CC registers were written
system.cpu1.num_mem_refs                    143862309                       # number of memory refs
system.cpu1.num_load_insts                  128926767                       # Number of load instructions
system.cpu1.num_store_insts                  14935542                       # Number of store instructions
system.cpu1.num_idle_cycles              2955468250.014349                       # Number of idle cycles
system.cpu1.num_busy_cycles              1709525080.985651                       # Number of busy cycles
system.cpu1.not_idle_fraction                0.366458                       # Percentage of non-idle cycles
system.cpu1.idle_fraction                    0.633542                       # Percentage of idle cycles
system.cpu1.Branches                         62537318                       # Number of branches fetched
system.cpu1.op_class::No_OpClass              1550127      0.18%      0.18% # Class of executed instruction
system.cpu1.op_class::IntAlu                460795969     53.11%     53.29% # Class of executed instruction
system.cpu1.op_class::IntMult                 1656335      0.19%     53.48% # Class of executed instruction
system.cpu1.op_class::IntDiv                    14707      0.00%     53.48% # Class of executed instruction
system.cpu1.op_class::FloatAdd              259754182     29.94%     83.42% # Class of executed instruction
system.cpu1.op_class::FloatCmp                      0      0.00%     83.42% # Class of executed instruction
system.cpu1.op_class::FloatCvt                      0      0.00%     83.42% # Class of executed instruction
system.cpu1.op_class::FloatMult                     0      0.00%     83.42% # Class of executed instruction
system.cpu1.op_class::FloatDiv                      0      0.00%     83.42% # Class of executed instruction
system.cpu1.op_class::FloatSqrt                     0      0.00%     83.42% # Class of executed instruction
system.cpu1.op_class::SimdAdd                       0      0.00%     83.42% # Class of executed instruction
system.cpu1.op_class::SimdAddAcc                    0      0.00%     83.42% # Class of executed instruction
system.cpu1.op_class::SimdAlu                       0      0.00%     83.42% # Class of executed instruction
system.cpu1.op_class::SimdCmp                       0      0.00%     83.42% # Class of executed instruction
system.cpu1.op_class::SimdCvt                       0      0.00%     83.42% # Class of executed instruction
system.cpu1.op_class::SimdMisc                      0      0.00%     83.42% # Class of executed instruction
system.cpu1.op_class::SimdMult                      0      0.00%     83.42% # Class of executed instruction
system.cpu1.op_class::SimdMultAcc                   0      0.00%     83.42% # Class of executed instruction
system.cpu1.op_class::SimdShift                     0      0.00%     83.42% # Class of executed instruction
system.cpu1.op_class::SimdShiftAcc                  0      0.00%     83.42% # Class of executed instruction
system.cpu1.op_class::SimdSqrt                      0      0.00%     83.42% # Class of executed instruction
system.cpu1.op_class::SimdFloatAdd                  0      0.00%     83.42% # Class of executed instruction
system.cpu1.op_class::SimdFloatAlu                  0      0.00%     83.42% # Class of executed instruction
system.cpu1.op_class::SimdFloatCmp                  0      0.00%     83.42% # Class of executed instruction
system.cpu1.op_class::SimdFloatCvt                  0      0.00%     83.42% # Class of executed instruction
system.cpu1.op_class::SimdFloatDiv                  0      0.00%     83.42% # Class of executed instruction
system.cpu1.op_class::SimdFloatMisc                 0      0.00%     83.42% # Class of executed instruction
system.cpu1.op_class::SimdFloatMult                 0      0.00%     83.42% # Class of executed instruction
system.cpu1.op_class::SimdFloatMultAcc              0      0.00%     83.42% # Class of executed instruction
system.cpu1.op_class::SimdFloatSqrt                 0      0.00%     83.42% # Class of executed instruction
system.cpu1.op_class::MemRead               128926767     14.86%     98.28% # Class of executed instruction
system.cpu1.op_class::MemWrite               14935542      1.72%    100.00% # Class of executed instruction
system.cpu1.op_class::IprAccess                     0      0.00%    100.00% # Class of executed instruction
system.cpu1.op_class::InstPrefetch                  0      0.00%    100.00% # Class of executed instruction
system.cpu1.op_class::total                 867633629                       # Class of executed instruction
system.cpu2.apic_clk_domain.clock                8000                       # Clock period in ticks
system.cpu2.numCycles                      4667115860                       # number of cpu cycles simulated
system.cpu2.numWorkItemsStarted                     0                       # number of work items this cpu started
system.cpu2.numWorkItemsCompleted                   0                       # number of work items this cpu completed
system.cpu2.kern.inst.arm                           0                       # number of arm instructions executed
system.cpu2.kern.inst.quiesce                       0                       # number of quiesce instructions executed
system.cpu2.committedInsts                  824325149                       # Number of instructions committed
system.cpu2.committedOps                   1490909322                       # Number of ops (including micro ops) committed
system.cpu2.num_int_alu_accesses            950056012                       # Number of integer alu accesses
system.cpu2.num_fp_alu_accesses             725748660                       # Number of float alu accesses
system.cpu2.num_func_calls                     276497                       # number of times a function call or return occured
system.cpu2.num_conditional_control_insts    101842688                       # number of instructions that are conditional controls
system.cpu2.num_int_insts                   950056012                       # number of integer instructions
system.cpu2.num_fp_insts                    725748660                       # number of float instructions
system.cpu2.num_int_register_reads         1854702451                       # number of times the integer registers were read
system.cpu2.num_int_register_writes         649304238                       # number of times the integer registers were written
system.cpu2.num_fp_register_reads           889460040                       # number of times the floating registers were read
system.cpu2.num_fp_register_writes          690299024                       # number of times the floating registers were written
system.cpu2.num_cc_register_reads           593530495                       # number of times the CC registers were read
system.cpu2.num_cc_register_writes          332828761                       # number of times the CC registers were written
system.cpu2.num_mem_refs                    246631553                       # number of memory refs
system.cpu2.num_load_insts                  222430068                       # Number of load instructions
system.cpu2.num_store_insts                  24201485                       # Number of store instructions
system.cpu2.num_idle_cycles              1710753848.534280                       # Number of idle cycles
system.cpu2.num_busy_cycles              2956362011.465720                       # Number of busy cycles
system.cpu2.not_idle_fraction                0.633445                       # Percentage of non-idle cycles
system.cpu2.idle_fraction                    0.366555                       # Percentage of idle cycles
system.cpu2.Branches                        104884222                       # Number of branches fetched
system.cpu2.op_class::No_OpClass              2422719      0.16%      0.16% # Class of executed instruction
system.cpu2.op_class::IntAlu                775533175     52.02%     52.18% # Class of executed instruction
system.cpu2.op_class::IntMult                 2621151      0.18%     52.36% # Class of executed instruction
system.cpu2.op_class::IntDiv                     9221      0.00%     52.36% # Class of executed instruction
system.cpu2.op_class::FloatAdd              463691596     31.10%     83.46% # Class of executed instruction
system.cpu2.op_class::FloatCmp                      0      0.00%     83.46% # Class of executed instruction
system.cpu2.op_class::FloatCvt                      0      0.00%     83.46% # Class of executed instruction
system.cpu2.op_class::FloatMult                     0      0.00%     83.46% # Class of executed instruction
system.cpu2.op_class::FloatDiv                      0      0.00%     83.46% # Class of executed instruction
system.cpu2.op_class::FloatSqrt                     0      0.00%     83.46% # Class of executed instruction
system.cpu2.op_class::SimdAdd                       0      0.00%     83.46% # Class of executed instruction
system.cpu2.op_class::SimdAddAcc                    0      0.00%     83.46% # Class of executed instruction
system.cpu2.op_class::SimdAlu                       0      0.00%     83.46% # Class of executed instruction
system.cpu2.op_class::SimdCmp                       0      0.00%     83.46% # Class of executed instruction
system.cpu2.op_class::SimdCvt                       0      0.00%     83.46% # Class of executed instruction
system.cpu2.op_class::SimdMisc                      0      0.00%     83.46% # Class of executed instruction
system.cpu2.op_class::SimdMult                      0      0.00%     83.46% # Class of executed instruction
system.cpu2.op_class::SimdMultAcc                   0      0.00%     83.46% # Class of executed instruction
system.cpu2.op_class::SimdShift                     0      0.00%     83.46% # Class of executed instruction
system.cpu2.op_class::SimdShiftAcc                  0      0.00%     83.46% # Class of executed instruction
system.cpu2.op_class::SimdSqrt                      0      0.00%     83.46% # Class of executed instruction
system.cpu2.op_class::SimdFloatAdd                  0      0.00%     83.46% # Class of executed instruction
system.cpu2.op_class::SimdFloatAlu                  0      0.00%     83.46% # Class of executed instruction
system.cpu2.op_class::SimdFloatCmp                  0      0.00%     83.46% # Class of executed instruction
system.cpu2.op_class::SimdFloatCvt                  0      0.00%     83.46% # Class of executed instruction
system.cpu2.op_class::SimdFloatDiv                  0      0.00%     83.46% # Class of executed instruction
system.cpu2.op_class::SimdFloatMisc                 0      0.00%     83.46% # Class of executed instruction
system.cpu2.op_class::SimdFloatMult                 0      0.00%     83.46% # Class of executed instruction
system.cpu2.op_class::SimdFloatMultAcc              0      0.00%     83.46% # Class of executed instruction
system.cpu2.op_class::SimdFloatSqrt                 0      0.00%     83.46% # Class of executed instruction
system.cpu2.op_class::MemRead               222430068     14.92%     98.38% # Class of executed instruction
system.cpu2.op_class::MemWrite               24201485      1.62%    100.00% # Class of executed instruction
system.cpu2.op_class::IprAccess                     0      0.00%    100.00% # Class of executed instruction
system.cpu2.op_class::InstPrefetch                  0      0.00%    100.00% # Class of executed instruction
system.cpu2.op_class::total                1490909415                       # Class of executed instruction
system.cpu3.apic_clk_domain.clock                8000                       # Clock period in ticks
system.cpu3.numCycles                      4666451290                       # number of cpu cycles simulated
system.cpu3.numWorkItemsStarted                     0                       # number of work items this cpu started
system.cpu3.numWorkItemsCompleted                   0                       # number of work items this cpu completed
system.cpu3.kern.inst.arm                           0                       # number of arm instructions executed
system.cpu3.kern.inst.quiesce                       0                       # number of quiesce instructions executed
system.cpu3.committedInsts                    1968938                       # Number of instructions committed
system.cpu3.committedOps                      4191239                       # Number of ops (including micro ops) committed
system.cpu3.num_int_alu_accesses              4104776                       # Number of integer alu accesses
system.cpu3.num_fp_alu_accesses                    39                       # Number of float alu accesses
system.cpu3.num_func_calls                     109260                       # number of times a function call or return occured
system.cpu3.num_conditional_control_insts       332286                       # number of instructions that are conditional controls
system.cpu3.num_int_insts                     4104776                       # number of integer instructions
system.cpu3.num_fp_insts                           39                       # number of float instructions
system.cpu3.num_int_register_reads            8190304                       # number of times the integer registers were read
system.cpu3.num_int_register_writes           3387841                       # number of times the integer registers were written
system.cpu3.num_fp_register_reads                  63                       # number of times the floating registers were read
system.cpu3.num_fp_register_writes                 31                       # number of times the floating registers were written
system.cpu3.num_cc_register_reads             2546151                       # number of times the CC registers were read
system.cpu3.num_cc_register_writes            1293509                       # number of times the CC registers were written
system.cpu3.num_mem_refs                       946180                       # number of memory refs
system.cpu3.num_load_insts                     588405                       # Number of load instructions
system.cpu3.num_store_insts                    357775                       # Number of store instructions
system.cpu3.num_idle_cycles              4658195953.245645                       # Number of idle cycles
system.cpu3.num_busy_cycles              8255336.754355                       # Number of busy cycles
system.cpu3.not_idle_fraction                0.001769                       # Percentage of non-idle cycles
system.cpu3.idle_fraction                    0.998231                       # Percentage of idle cycles
system.cpu3.Branches                           476850                       # Number of branches fetched
system.cpu3.op_class::No_OpClass                71703      1.71%      1.71% # Class of executed instruction
system.cpu3.op_class::IntAlu                  3139658     74.91%     76.62% # Class of executed instruction
system.cpu3.op_class::IntMult                    7791      0.19%     76.81% # Class of executed instruction
system.cpu3.op_class::IntDiv                    25899      0.62%     77.42% # Class of executed instruction
system.cpu3.op_class::FloatAdd                     30      0.00%     77.42% # Class of executed instruction
system.cpu3.op_class::FloatCmp                      0      0.00%     77.42% # Class of executed instruction
system.cpu3.op_class::FloatCvt                      0      0.00%     77.42% # Class of executed instruction
system.cpu3.op_class::FloatMult                     0      0.00%     77.42% # Class of executed instruction
system.cpu3.op_class::FloatDiv                      0      0.00%     77.42% # Class of executed instruction
system.cpu3.op_class::FloatSqrt                     0      0.00%     77.42% # Class of executed instruction
system.cpu3.op_class::SimdAdd                       0      0.00%     77.42% # Class of executed instruction
system.cpu3.op_class::SimdAddAcc                    0      0.00%     77.42% # Class of executed instruction
system.cpu3.op_class::SimdAlu                       0      0.00%     77.42% # Class of executed instruction
system.cpu3.op_class::SimdCmp                       0      0.00%     77.42% # Class of executed instruction
system.cpu3.op_class::SimdCvt                       0      0.00%     77.42% # Class of executed instruction
system.cpu3.op_class::SimdMisc                      0      0.00%     77.42% # Class of executed instruction
system.cpu3.op_class::SimdMult                      0      0.00%     77.42% # Class of executed instruction
system.cpu3.op_class::SimdMultAcc                   0      0.00%     77.42% # Class of executed instruction
system.cpu3.op_class::SimdShift                     0      0.00%     77.42% # Class of executed instruction
system.cpu3.op_class::SimdShiftAcc                  0      0.00%     77.42% # Class of executed instruction
system.cpu3.op_class::SimdSqrt                      0      0.00%     77.42% # Class of executed instruction
system.cpu3.op_class::SimdFloatAdd                  0      0.00%     77.42% # Class of executed instruction
system.cpu3.op_class::SimdFloatAlu                  0      0.00%     77.42% # Class of executed instruction
system.cpu3.op_class::SimdFloatCmp                  0      0.00%     77.42% # Class of executed instruction
system.cpu3.op_class::SimdFloatCvt                  0      0.00%     77.42% # Class of executed instruction
system.cpu3.op_class::SimdFloatDiv                  0      0.00%     77.42% # Class of executed instruction
system.cpu3.op_class::SimdFloatMisc                 0      0.00%     77.42% # Class of executed instruction
system.cpu3.op_class::SimdFloatMult                 0      0.00%     77.42% # Class of executed instruction
system.cpu3.op_class::SimdFloatMultAcc              0      0.00%     77.42% # Class of executed instruction
system.cpu3.op_class::SimdFloatSqrt                 0      0.00%     77.42% # Class of executed instruction
system.cpu3.op_class::MemRead                  588405     14.04%     91.46% # Class of executed instruction
system.cpu3.op_class::MemWrite                 357775      8.54%    100.00% # Class of executed instruction
system.cpu3.op_class::IprAccess                     0      0.00%    100.00% # Class of executed instruction
system.cpu3.op_class::InstPrefetch                  0      0.00%    100.00% # Class of executed instruction
system.cpu3.op_class::total                   4191261                       # Class of executed instruction
system.iobus.trans_dist::ReadReq                  420                       # Transaction distribution
system.iobus.trans_dist::ReadResp                 420                       # Transaction distribution
system.iobus.trans_dist::WriteReq                3078                       # Transaction distribution
system.iobus.trans_dist::WriteResp               3078                       # Transaction distribution
system.iobus.trans_dist::MessageReq                58                       # Transaction distribution
system.iobus.trans_dist::MessageResp               58                       # Transaction distribution
system.iobus.pkt_count_system.pc.south_bridge.io_apic.int_master::system.ruby.l1_cntrl0.sequencer.pio-slave-port           24                       # Packet count per connected master and slave (bytes)
system.iobus.pkt_count_system.pc.south_bridge.io_apic.int_master::system.ruby.l1_cntrl1.sequencer.pio-slave-port           22                       # Packet count per connected master and slave (bytes)
system.iobus.pkt_count_system.pc.south_bridge.io_apic.int_master::system.ruby.l1_cntrl2.sequencer.pio-slave-port           22                       # Packet count per connected master and slave (bytes)
system.iobus.pkt_count_system.pc.south_bridge.io_apic.int_master::system.ruby.l1_cntrl3.sequencer.pio-slave-port           24                       # Packet count per connected master and slave (bytes)
system.iobus.pkt_count_system.pc.south_bridge.io_apic.int_master::total           92                       # Packet count per connected master and slave (bytes)
system.iobus.pkt_count_system.ruby.l1_cntrl0.sequencer.mem-master-port::system.pc.south_bridge.ide.pio          506                       # Packet count per connected master and slave (bytes)
system.iobus.pkt_count_system.ruby.l1_cntrl0.sequencer.mem-master-port::system.pc.south_bridge.io_apic.pio            8                       # Packet count per connected master and slave (bytes)
system.iobus.pkt_count_system.ruby.l1_cntrl0.sequencer.mem-master-port::system.pc.com_1.pio            2                       # Packet count per connected master and slave (bytes)
system.iobus.pkt_count_system.ruby.l1_cntrl0.sequencer.mem-master-port::system.ruby.l1_cntrl0.sequencer.pio-slave-port         1224                       # Packet count per connected master and slave (bytes)
system.iobus.pkt_count_system.ruby.l1_cntrl0.sequencer.mem-master-port::system.ruby.l1_cntrl1.sequencer.pio-slave-port            4                       # Packet count per connected master and slave (bytes)
system.iobus.pkt_count_system.ruby.l1_cntrl0.sequencer.mem-master-port::system.ruby.l1_cntrl2.sequencer.pio-slave-port            2                       # Packet count per connected master and slave (bytes)
system.iobus.pkt_count_system.ruby.l1_cntrl0.sequencer.mem-master-port::system.ruby.l1_cntrl3.sequencer.pio-slave-port            2                       # Packet count per connected master and slave (bytes)
system.iobus.pkt_count_system.ruby.l1_cntrl0.sequencer.mem-master-port::total         1748                       # Packet count per connected master and slave (bytes)
system.iobus.pkt_count_system.ruby.l1_cntrl1.sequencer.mem-master-port::system.pc.south_bridge.ide.pio          494                       # Packet count per connected master and slave (bytes)
system.iobus.pkt_count_system.ruby.l1_cntrl1.sequencer.mem-master-port::system.pc.south_bridge.io_apic.pio            6                       # Packet count per connected master and slave (bytes)
system.iobus.pkt_count_system.ruby.l1_cntrl1.sequencer.mem-master-port::system.pc.com_1.pio          174                       # Packet count per connected master and slave (bytes)
system.iobus.pkt_count_system.ruby.l1_cntrl1.sequencer.mem-master-port::system.ruby.l1_cntrl0.sequencer.pio-slave-port            2                       # Packet count per connected master and slave (bytes)
system.iobus.pkt_count_system.ruby.l1_cntrl1.sequencer.mem-master-port::system.ruby.l1_cntrl1.sequencer.pio-slave-port         1210                       # Packet count per connected master and slave (bytes)
system.iobus.pkt_count_system.ruby.l1_cntrl1.sequencer.mem-master-port::system.ruby.l1_cntrl2.sequencer.pio-slave-port            2                       # Packet count per connected master and slave (bytes)
system.iobus.pkt_count_system.ruby.l1_cntrl1.sequencer.mem-master-port::total         1888                       # Packet count per connected master and slave (bytes)
system.iobus.pkt_count_system.ruby.l1_cntrl2.sequencer.mem-master-port::system.pc.south_bridge.ide.pio          426                       # Packet count per connected master and slave (bytes)
system.iobus.pkt_count_system.ruby.l1_cntrl2.sequencer.mem-master-port::system.pc.south_bridge.io_apic.pio            8                       # Packet count per connected master and slave (bytes)
system.iobus.pkt_count_system.ruby.l1_cntrl2.sequencer.mem-master-port::system.ruby.l1_cntrl0.sequencer.pio-slave-port            4                       # Packet count per connected master and slave (bytes)
system.iobus.pkt_count_system.ruby.l1_cntrl2.sequencer.mem-master-port::system.ruby.l1_cntrl1.sequencer.pio-slave-port            4                       # Packet count per connected master and slave (bytes)
system.iobus.pkt_count_system.ruby.l1_cntrl2.sequencer.mem-master-port::system.ruby.l1_cntrl2.sequencer.pio-slave-port         1224                       # Packet count per connected master and slave (bytes)
system.iobus.pkt_count_system.ruby.l1_cntrl2.sequencer.mem-master-port::system.ruby.l1_cntrl3.sequencer.pio-slave-port            2                       # Packet count per connected master and slave (bytes)
system.iobus.pkt_count_system.ruby.l1_cntrl2.sequencer.mem-master-port::total         1668                       # Packet count per connected master and slave (bytes)
system.iobus.pkt_count_system.ruby.l1_cntrl3.sequencer.mem-master-port::system.pc.south_bridge.ide.pio          506                       # Packet count per connected master and slave (bytes)
system.iobus.pkt_count_system.ruby.l1_cntrl3.sequencer.mem-master-port::system.pc.south_bridge.io_apic.pio            8                       # Packet count per connected master and slave (bytes)
system.iobus.pkt_count_system.ruby.l1_cntrl3.sequencer.mem-master-port::system.ruby.l1_cntrl0.sequencer.pio-slave-port            2                       # Packet count per connected master and slave (bytes)
system.iobus.pkt_count_system.ruby.l1_cntrl3.sequencer.mem-master-port::system.ruby.l1_cntrl3.sequencer.pio-slave-port         1200                       # Packet count per connected master and slave (bytes)
system.iobus.pkt_count_system.ruby.l1_cntrl3.sequencer.mem-master-port::total         1716                       # Packet count per connected master and slave (bytes)
system.iobus.pkt_count::total                    7112                       # Packet count per connected master and slave (bytes)
system.iobus.pkt_size_system.pc.south_bridge.io_apic.int_master::system.ruby.l1_cntrl0.sequencer.pio-slave-port           48                       # Cumulative packet size per connected master and slave (bytes)
system.iobus.pkt_size_system.pc.south_bridge.io_apic.int_master::system.ruby.l1_cntrl1.sequencer.pio-slave-port           44                       # Cumulative packet size per connected master and slave (bytes)
system.iobus.pkt_size_system.pc.south_bridge.io_apic.int_master::system.ruby.l1_cntrl2.sequencer.pio-slave-port           44                       # Cumulative packet size per connected master and slave (bytes)
system.iobus.pkt_size_system.pc.south_bridge.io_apic.int_master::system.ruby.l1_cntrl3.sequencer.pio-slave-port           48                       # Cumulative packet size per connected master and slave (bytes)
system.iobus.pkt_size_system.pc.south_bridge.io_apic.int_master::total          184                       # Cumulative packet size per connected master and slave (bytes)
system.iobus.pkt_size_system.ruby.l1_cntrl0.sequencer.mem-master-port::system.pc.south_bridge.ide.pio          286                       # Cumulative packet size per connected master and slave (bytes)
system.iobus.pkt_size_system.ruby.l1_cntrl0.sequencer.mem-master-port::system.pc.south_bridge.io_apic.pio           16                       # Cumulative packet size per connected master and slave (bytes)
system.iobus.pkt_size_system.ruby.l1_cntrl0.sequencer.mem-master-port::system.pc.com_1.pio            1                       # Cumulative packet size per connected master and slave (bytes)
system.iobus.pkt_size_system.ruby.l1_cntrl0.sequencer.mem-master-port::system.ruby.l1_cntrl0.sequencer.pio-slave-port         2448                       # Cumulative packet size per connected master and slave (bytes)
system.iobus.pkt_size_system.ruby.l1_cntrl0.sequencer.mem-master-port::system.ruby.l1_cntrl1.sequencer.pio-slave-port            8                       # Cumulative packet size per connected master and slave (bytes)
system.iobus.pkt_size_system.ruby.l1_cntrl0.sequencer.mem-master-port::system.ruby.l1_cntrl2.sequencer.pio-slave-port            4                       # Cumulative packet size per connected master and slave (bytes)
system.iobus.pkt_size_system.ruby.l1_cntrl0.sequencer.mem-master-port::system.ruby.l1_cntrl3.sequencer.pio-slave-port            4                       # Cumulative packet size per connected master and slave (bytes)
system.iobus.pkt_size_system.ruby.l1_cntrl0.sequencer.mem-master-port::total         2767                       # Cumulative packet size per connected master and slave (bytes)
system.iobus.pkt_size_system.ruby.l1_cntrl1.sequencer.mem-master-port::system.pc.south_bridge.ide.pio          280                       # Cumulative packet size per connected master and slave (bytes)
system.iobus.pkt_size_system.ruby.l1_cntrl1.sequencer.mem-master-port::system.pc.south_bridge.io_apic.pio           12                       # Cumulative packet size per connected master and slave (bytes)
system.iobus.pkt_size_system.ruby.l1_cntrl1.sequencer.mem-master-port::system.pc.com_1.pio           87                       # Cumulative packet size per connected master and slave (bytes)
system.iobus.pkt_size_system.ruby.l1_cntrl1.sequencer.mem-master-port::system.ruby.l1_cntrl0.sequencer.pio-slave-port            4                       # Cumulative packet size per connected master and slave (bytes)
system.iobus.pkt_size_system.ruby.l1_cntrl1.sequencer.mem-master-port::system.ruby.l1_cntrl1.sequencer.pio-slave-port         2420                       # Cumulative packet size per connected master and slave (bytes)
system.iobus.pkt_size_system.ruby.l1_cntrl1.sequencer.mem-master-port::system.ruby.l1_cntrl2.sequencer.pio-slave-port            4                       # Cumulative packet size per connected master and slave (bytes)
system.iobus.pkt_size_system.ruby.l1_cntrl1.sequencer.mem-master-port::total         2807                       # Cumulative packet size per connected master and slave (bytes)
system.iobus.pkt_size_system.ruby.l1_cntrl2.sequencer.mem-master-port::system.pc.south_bridge.ide.pio          240                       # Cumulative packet size per connected master and slave (bytes)
system.iobus.pkt_size_system.ruby.l1_cntrl2.sequencer.mem-master-port::system.pc.south_bridge.io_apic.pio           16                       # Cumulative packet size per connected master and slave (bytes)
system.iobus.pkt_size_system.ruby.l1_cntrl2.sequencer.mem-master-port::system.ruby.l1_cntrl0.sequencer.pio-slave-port            8                       # Cumulative packet size per connected master and slave (bytes)
system.iobus.pkt_size_system.ruby.l1_cntrl2.sequencer.mem-master-port::system.ruby.l1_cntrl1.sequencer.pio-slave-port            8                       # Cumulative packet size per connected master and slave (bytes)
system.iobus.pkt_size_system.ruby.l1_cntrl2.sequencer.mem-master-port::system.ruby.l1_cntrl2.sequencer.pio-slave-port         2448                       # Cumulative packet size per connected master and slave (bytes)
system.iobus.pkt_size_system.ruby.l1_cntrl2.sequencer.mem-master-port::system.ruby.l1_cntrl3.sequencer.pio-slave-port            4                       # Cumulative packet size per connected master and slave (bytes)
system.iobus.pkt_size_system.ruby.l1_cntrl2.sequencer.mem-master-port::total         2724                       # Cumulative packet size per connected master and slave (bytes)
system.iobus.pkt_size_system.ruby.l1_cntrl3.sequencer.mem-master-port::system.pc.south_bridge.ide.pio          286                       # Cumulative packet size per connected master and slave (bytes)
system.iobus.pkt_size_system.ruby.l1_cntrl3.sequencer.mem-master-port::system.pc.south_bridge.io_apic.pio           16                       # Cumulative packet size per connected master and slave (bytes)
system.iobus.pkt_size_system.ruby.l1_cntrl3.sequencer.mem-master-port::system.ruby.l1_cntrl0.sequencer.pio-slave-port            4                       # Cumulative packet size per connected master and slave (bytes)
system.iobus.pkt_size_system.ruby.l1_cntrl3.sequencer.mem-master-port::system.ruby.l1_cntrl3.sequencer.pio-slave-port         2400                       # Cumulative packet size per connected master and slave (bytes)
system.iobus.pkt_size_system.ruby.l1_cntrl3.sequencer.mem-master-port::total         2706                       # Cumulative packet size per connected master and slave (bytes)
system.iobus.pkt_size::total                    11188                       # Cumulative packet size per connected master and slave (bytes)
system.iobus.reqLayer2.occupancy              1655500                       # Layer occupancy (ticks)
system.iobus.reqLayer2.utilization                0.0                       # Layer utilization (%)
system.iobus.reqLayer8.occupancy                26996                       # Layer occupancy (ticks)
system.iobus.reqLayer8.utilization                0.0                       # Layer utilization (%)
system.iobus.reqLayer12.occupancy              114500                       # Layer occupancy (ticks)
system.iobus.reqLayer12.utilization               0.0                       # Layer utilization (%)
system.iobus.reqLayer17.occupancy             1557488                       # Layer occupancy (ticks)
system.iobus.reqLayer17.utilization               0.0                       # Layer utilization (%)
system.iobus.reqLayer18.occupancy             1590795                       # Layer occupancy (ticks)
system.iobus.reqLayer18.utilization               0.0                       # Layer utilization (%)
system.iobus.reqLayer19.occupancy             1622160                       # Layer occupancy (ticks)
system.iobus.reqLayer19.utilization               0.0                       # Layer utilization (%)
system.iobus.reqLayer20.occupancy             1532988                       # Layer occupancy (ticks)
system.iobus.reqLayer20.utilization               0.0                       # Layer utilization (%)
system.iobus.respLayer0.occupancy               78958                       # Layer occupancy (ticks)
system.iobus.respLayer0.utilization               0.0                       # Layer utilization (%)
system.iobus.respLayer2.occupancy             1274000                       # Layer occupancy (ticks)
system.iobus.respLayer2.utilization               0.0                       # Layer utilization (%)
system.iobus.respLayer4.occupancy             1398500                       # Layer occupancy (ticks)
system.iobus.respLayer4.utilization               0.0                       # Layer utilization (%)
system.iobus.respLayer6.occupancy             1223000                       # Layer occupancy (ticks)
system.iobus.respLayer6.utilization               0.0                       # Layer utilization (%)
system.iobus.respLayer8.occupancy             1249000                       # Layer occupancy (ticks)
system.iobus.respLayer8.utilization               0.0                       # Layer utilization (%)
system.pc.south_bridge.ide.disks.dma_read_full_pages          357                       # Number of full page size DMA reads (not PRD).
system.pc.south_bridge.ide.disks.dma_read_bytes      1462272                       # Number of bytes transfered via DMA reads (not PRD).
system.pc.south_bridge.ide.disks.dma_read_txs          357                       # Number of DMA read transactions (not PRD).
system.pc.south_bridge.ide.disks.dma_write_full_pages            0                       # Number of full page size DMA writes.
system.pc.south_bridge.ide.disks.dma_write_bytes            0                       # Number of bytes transfered via DMA writes.
system.pc.south_bridge.ide.disks.dma_write_txs            0                       # Number of DMA write transactions.
system.ruby.clk_domain.clock                      500                       # Clock period in ticks
system.ruby.outstanding_req_hist_seqr::bucket_size            1                      
system.ruby.outstanding_req_hist_seqr::max_bucket            9                      
system.ruby.outstanding_req_hist_seqr::samples   2274131899                      
system.ruby.outstanding_req_hist_seqr::mean     1.001962                      
system.ruby.outstanding_req_hist_seqr::gmean     1.001361                      
system.ruby.outstanding_req_hist_seqr::stdev     0.044255                      
system.ruby.outstanding_req_hist_seqr    |           0      0.00%      0.00% |  2269669331     99.80%     99.80% |     4462568      0.20%    100.00% |           0      0.00%    100.00% |           0      0.00%    100.00% |           0      0.00%    100.00% |           0      0.00%    100.00% |           0      0.00%    100.00% |           0      0.00%    100.00% |           0      0.00%    100.00%
system.ruby.outstanding_req_hist_seqr::total   2274131899                      
system.ruby.latency_hist_seqr::bucket_size          128                      
system.ruby.latency_hist_seqr::max_bucket         1279                      
system.ruby.latency_hist_seqr::samples     2274131899                      
system.ruby.latency_hist_seqr::mean          1.065665                      
system.ruby.latency_hist_seqr::gmean         1.003722                      
system.ruby.latency_hist_seqr::stdev         2.950700                      
system.ruby.latency_hist_seqr            |  2274039253    100.00%    100.00% |       64251      0.00%    100.00% |       10867      0.00%    100.00% |        5153      0.00%    100.00% |        9747      0.00%    100.00% |        2434      0.00%    100.00% |         129      0.00%    100.00% |          58      0.00%    100.00% |           7      0.00%    100.00% |           0      0.00%    100.00%
[...]
system.ruby.L1Cache_Controller.M.Store::total       334924                      
system.ruby.L1Cache_Controller.M.L2_Replacement |         848      0.15%      0.15% |      145168     25.87%     26.02% |      415152     73.98%    100.00% |           9      0.00%    100.00%
system.ruby.L1Cache_Controller.M.L2_Replacement::total       561177                      
system.ruby.L1Cache_Controller.M.L1_to_L2 |       12180      1.08%      1.08% |      360433     32.03%     33.11% |      746289     66.32%     99.43% |        6365      0.57%    100.00%
system.ruby.L1Cache_Controller.M.L1_to_L2::total      1125267                      
system.ruby.L1Cache_Controller.M.Trigger_L2_to_L1D |        3525      0.71%      0.71% |      181256     36.47%     37.18% |      310825     62.54%     99.72% |        1410      0.28%    100.00%
system.ruby.L1Cache_Controller.M.Trigger_L2_to_L1D::total       497016                      
system.ruby.L1Cache_Controller.M.Trigger_L2_to_L1I |        4721     18.82%     18.82% |        5996     23.90%     42.72% |       14234     56.74%     99.46% |         136      0.54%    100.00%
system.ruby.L1Cache_Controller.M.Trigger_L2_to_L1I::total        25087                      
system.ruby.L1Cache_Controller.M.Other_GETX |         433      2.39%      2.39% |       16504     90.91%     93.29% |         562      3.10%     96.39% |         656      3.61%    100.00%
system.ruby.L1Cache_Controller.M.Other_GETX::total        18155                      
system.ruby.L1Cache_Controller.M.Other_GETS |        5929     19.22%     19.22% |       10927     35.42%     54.64% |        6902     22.37%     77.01% |        7094     22.99%    100.00%
system.ruby.L1Cache_Controller.M.Other_GETS::total        30852                      
system.ruby.L1Cache_Controller.M.Merged_GETS |           8     17.02%     17.02% |          11     23.40%     40.43% |          23     48.94%     89.36% |           5     10.64%    100.00%
system.ruby.L1Cache_Controller.M.Merged_GETS::total           47                      
system.ruby.L1Cache_Controller.MM.Load   |      702132      0.73%      0.73% |    29307877     30.65%     31.38% |    65067968     68.05%     99.43% |      543071      0.57%    100.00%
system.ruby.L1Cache_Controller.MM.Load::total     95621048                      
system.ruby.L1Cache_Controller.MM.Store  |      854857      1.60%      1.60% |    15736681     29.39%     30.99% |    36346166     67.88%     98.87% |      606170      1.13%    100.00%
system.ruby.L1Cache_Controller.MM.Store::total     53543874                      
system.ruby.L1Cache_Controller.MM.L2_Replacement |        2661      0.34%      0.34% |      258113     32.96%     33.30% |      522300     66.70%    100.00% |          11      0.00%    100.00%
system.ruby.L1Cache_Controller.MM.L2_Replacement::total       783085                      
system.ruby.L1Cache_Controller.MM.L1_to_L2 |       43547      3.49%      3.49% |      379771     30.46%     33.95% |      808743     64.87%     98.83% |       14645      1.17%    100.00%
system.ruby.L1Cache_Controller.MM.L1_to_L2::total      1246706                      
system.ruby.L1Cache_Controller.MM.Trigger_L2_to_L1D |       18723      4.81%      4.81% |      102745     26.37%     31.18% |      261691     67.17%     98.35% |        6432      1.65%    100.00%
system.ruby.L1Cache_Controller.MM.Trigger_L2_to_L1D::total       389591                      
system.ruby.L1Cache_Controller.MM.Other_GETX |        5780     44.23%     44.23% |        1654     12.66%     56.89% |        4442     33.99%     90.88% |        1192      9.12%    100.00%
system.ruby.L1Cache_Controller.MM.Other_GETX::total        13068                      
system.ruby.L1Cache_Controller.MM.Other_GETS |       40038     61.30%     61.30% |       10749     16.46%     77.75% |       10169     15.57%     93.32% |        4362      6.68%    100.00%
system.ruby.L1Cache_Controller.MM.Other_GETS::total        65318                      
system.ruby.L1Cache_Controller.MM.Merged_GETS |          27     26.21%     26.21% |          27     26.21%     52.43% |          30     29.13%     81.55% |          19     18.45%    100.00%
system.ruby.L1Cache_Controller.MM.Merged_GETS::total          103                      
system.ruby.L1Cache_Controller.SR.Load   |        4379      8.29%      8.29% |       17804     33.70%     41.99% |       26551     50.26%     92.26% |        4091      7.74%    100.00%
system.ruby.L1Cache_Controller.SR.Load::total        52825                      
system.ruby.L1Cache_Controller.SR.Ifetch |       27764     18.33%     18.33% |       45686     30.17%     48.50% |       47200     31.17%     79.66% |       30799     20.34%    100.00%
system.ruby.L1Cache_Controller.SR.Ifetch::total       151449                      
system.ruby.L1Cache_Controller.SR.Store  |          59      9.08%      9.08% |         119     18.31%     27.38% |         439     67.54%     94.92% |          33      5.08%    100.00%
system.ruby.L1Cache_Controller.SR.Store::total          650                      
system.ruby.L1Cache_Controller.OR.Load   |        2821     35.69%     35.69% |        1067     13.50%     49.18% |        1811     22.91%     72.09% |        2206     27.91%    100.00%
system.ruby.L1Cache_Controller.OR.Load::total         7905                      
system.ruby.L1Cache_Controller.OR.Ifetch |       14766     42.63%     42.63% |        2349      6.78%     49.42% |       14781     42.68%     92.09% |        2739      7.91%    100.00%
system.ruby.L1Cache_Controller.OR.Ifetch::total        34635                      
system.ruby.L1Cache_Controller.OR.Store  |           2      5.13%      5.13% |           5     12.82%     17.95% |           7     17.95%     35.90% |          25     64.10%    100.00%
system.ruby.L1Cache_Controller.OR.Store::total           39                      
system.ruby.L1Cache_Controller.MR.Load   |        2929      0.59%      0.59% |      179939     36.55%     37.14% |      308530     62.67%     99.81% |         946      0.19%    100.00%
system.ruby.L1Cache_Controller.MR.Load::total       492344                      
system.ruby.L1Cache_Controller.MR.Ifetch |        4721     18.82%     18.82% |        5996     23.90%     42.72% |       14234     56.74%     99.46% |         136      0.54%    100.00%
system.ruby.L1Cache_Controller.MR.Ifetch::total        25087                      
system.ruby.L1Cache_Controller.MR.Store  |         596     12.76%     12.76% |        1317     28.19%     40.95% |        2295     49.12%     90.07% |         464      9.93%    100.00%
system.ruby.L1Cache_Controller.MR.Store::total         4672                      
system.ruby.L1Cache_Controller.MMR.Load  |       10625      3.22%      3.22% |       90688     27.46%     30.67% |      226447     68.56%     99.23% |        2540      0.77%    100.00%
system.ruby.L1Cache_Controller.MMR.Load::total       330300                      
system.ruby.L1Cache_Controller.MMR.Store |        8098     13.66%     13.66% |       12057     20.34%     33.99% |       35244     59.44%     93.44% |        3892      6.56%    100.00%
system.ruby.L1Cache_Controller.MMR.Store::total        59291                      
system.ruby.L1Cache_Controller.IM.Ack    |       14078      0.95%      0.95% |      531904     35.96%     36.91% |      920931     62.26%     99.18% |       12179      0.82%    100.00%
system.ruby.L1Cache_Controller.IM.Ack::total      1479092                      
system.ruby.L1Cache_Controller.IM.Data   |        2272     29.80%     29.80% |        1440     18.89%     48.69% |        2883     37.81%     86.50% |        1029     13.50%    100.00%
system.ruby.L1Cache_Controller.IM.Data::total         7624                      
system.ruby.L1Cache_Controller.IM.Exclusive_Data |        5266      1.03%      1.03% |      180489     35.29%     36.32% |      319880     62.55%     98.87% |        5777      1.13%    100.00%
system.ruby.L1Cache_Controller.IM.Exclusive_Data::total       511412                      
system.ruby.L1Cache_Controller.SM.Other_GETX |           0      0.00%      0.00% |           1    100.00%    100.00% |           0      0.00%    100.00% |           0      0.00%    100.00%
system.ruby.L1Cache_Controller.SM.Other_GETX::total            1                      
system.ruby.L1Cache_Controller.SM.Ack    |        4508     26.02%     26.02% |        2279     13.15%     39.17% |        9101     52.52%     91.69% |        1440      8.31%    100.00%
system.ruby.L1Cache_Controller.SM.Ack::total        17328                      
system.ruby.L1Cache_Controller.SM.Data   |        3823     24.26%     24.26% |        2592     16.45%     40.70% |        7708     48.91%     89.61% |        1638     10.39%    100.00%
system.ruby.L1Cache_Controller.SM.Data::total        15761                      
system.ruby.L1Cache_Controller.OM.Ack    |         135     13.01%     13.01% |         228     21.97%     34.97% |         318     30.64%     65.61% |         357     34.39%    100.00%
system.ruby.L1Cache_Controller.OM.Ack::total         1038                      
system.ruby.L1Cache_Controller.OM.All_acks_no_sharers |          45     13.01%     13.01% |          76     21.97%     34.97% |         106     30.64%     65.61% |         119     34.39%    100.00%
system.ruby.L1Cache_Controller.OM.All_acks_no_sharers::total          346                      
system.ruby.L1Cache_Controller.ISM.Ack   |        5048     23.39%     23.39% |        4486     20.78%     44.17% |        9072     42.03%     86.20% |        2978     13.80%    100.00%
system.ruby.L1Cache_Controller.ISM.Ack::total        21584                      
system.ruby.L1Cache_Controller.ISM.All_acks_no_sharers |        6095     26.06%     26.06% |        4032     17.24%     43.31% |       10591     45.29%     88.60% |        2667     11.40%    100.00%
system.ruby.L1Cache_Controller.ISM.All_acks_no_sharers::total        23385                      
system.ruby.L1Cache_Controller.M_W.Load  |          47     15.02%     15.02% |          76     24.28%     39.30% |         152     48.56%     87.86% |          38     12.14%    100.00%
system.ruby.L1Cache_Controller.M_W.Load::total          313                      
system.ruby.L1Cache_Controller.M_W.Store |          10     11.49%     11.49% |          14     16.09%     27.59% |          48     55.17%     82.76% |          15     17.24%    100.00%
system.ruby.L1Cache_Controller.M_W.Store::total           87                      
system.ruby.L1Cache_Controller.M_W.Ack   |        6411      8.38%      8.38% |       24202     31.63%     40.01% |       39215     51.25%     91.25% |        6692      8.75%    100.00%
system.ruby.L1Cache_Controller.M_W.Ack::total        76520                      
system.ruby.L1Cache_Controller.M_W.All_acks_no_sharers |       25457      2.67%      2.67% |      271645     28.47%     31.14% |      645248     67.63%     98.78% |       11682      1.22%    100.00%
system.ruby.L1Cache_Controller.M_W.All_acks_no_sharers::total       954032                      
system.ruby.L1Cache_Controller.MM_W.Load |           0      0.00%      0.00% |           0      0.00%      0.00% |           1    100.00%    100.00% |           0      0.00%    100.00%
system.ruby.L1Cache_Controller.MM_W.Load::total            1                      
system.ruby.L1Cache_Controller.MM_W.Store |         486      7.96%      7.96% |        1623     26.58%     34.53% |        3110     50.93%     85.46% |         888     14.54%    100.00%
system.ruby.L1Cache_Controller.MM_W.Store::total         6107                      
system.ruby.L1Cache_Controller.MM_W.Ack  |        2083      6.48%      6.48% |        5881     18.30%     24.78% |       21453     66.74%     91.52% |        2726      8.48%    100.00%
system.ruby.L1Cache_Controller.MM_W.Ack::total        32143                      
system.ruby.L1Cache_Controller.MM_W.All_acks_no_sharers |        5276      1.03%      1.03% |      180503     35.29%     36.32% |      319928     62.55%     98.87% |        5792      1.13%    100.00%
system.ruby.L1Cache_Controller.MM_W.All_acks_no_sharers::total       511499                      
system.ruby.L1Cache_Controller.IS.Ack    |       75594      2.71%      2.71% |      785381     28.11%     30.82% |     1901185     68.05%     98.86% |       31758      1.14%    100.00%
system.ruby.L1Cache_Controller.IS.Ack::total      2793918                      
system.ruby.L1Cache_Controller.IS.Shared_Ack |        6356     21.94%     21.94% |        7596     26.22%     48.16% |        9978     34.44%     82.60% |        5041     17.40%    100.00%
system.ruby.L1Cache_Controller.IS.Shared_Ack::total        28971                      
system.ruby.L1Cache_Controller.IS.Data   |        1748     16.43%     16.43% |        2320     21.80%     38.23% |        4761     44.74%     82.97% |        1812     17.03%    100.00%
system.ruby.L1Cache_Controller.IS.Data::total        10641                      
system.ruby.L1Cache_Controller.IS.Shared_Data |       11020     16.14%     16.14% |       16049     23.51%     39.66% |       29286     42.91%     82.56% |       11902     17.44%    100.00%
system.ruby.L1Cache_Controller.IS.Shared_Data::total        68257                      
system.ruby.L1Cache_Controller.IS.Exclusive_Data |       25467      2.67%      2.67% |      271659     28.47%     31.14% |      645296     67.63%     98.77% |       11697      1.23%    100.00%
system.ruby.L1Cache_Controller.IS.Exclusive_Data::total       954119                      
system.ruby.L1Cache_Controller.SS.Load   |          25      0.45%      0.45% |         654     11.72%     12.17% |        4871     87.31%     99.48% |          29      0.52%    100.00%
system.ruby.L1Cache_Controller.SS.Load::total         5579                      
system.ruby.L1Cache_Controller.SS.Ifetch |        1004     10.08%     10.08% |        2977     29.87%     39.95% |        4121     41.35%     81.30% |        1863     18.70%    100.00%
system.ruby.L1Cache_Controller.SS.Ifetch::total         9965                      
system.ruby.L1Cache_Controller.SS.Store  |           3     23.08%     23.08% |           4     30.77%     53.85% |           6     46.15%    100.00% |           0      0.00%    100.00%
system.ruby.L1Cache_Controller.SS.Store::total           13                      
system.ruby.L1Cache_Controller.SS.Ack    |        5641     11.59%     11.59% |        9622     19.78%     31.37% |       23970     49.27%     80.64% |        9420     19.36%    100.00%
system.ruby.L1Cache_Controller.SS.Ack::total        48653                      
system.ruby.L1Cache_Controller.SS.Shared_Ack |        3695     21.40%     21.40% |        6602     38.24%     59.64% |        4021     23.29%     82.93% |        2948     17.07%    100.00%
system.ruby.L1Cache_Controller.SS.Shared_Ack::total        17266                      
system.ruby.L1Cache_Controller.SS.All_acks |       12590     16.34%     16.34% |       18349     23.81%     40.15% |       32425     42.07%     82.22% |       13701     17.78%    100.00%
system.ruby.L1Cache_Controller.SS.All_acks::total        77065                      
system.ruby.L1Cache_Controller.SS.All_acks_no_sharers |         178      9.71%      9.71% |          20      1.09%     10.80% |        1622     88.49%     99.29% |          13      0.71%    100.00%
system.ruby.L1Cache_Controller.SS.All_acks_no_sharers::total         1833                      
system.ruby.L1Cache_Controller.OI.Load   |           2    100.00%    100.00% |           0      0.00%    100.00% |           0      0.00%    100.00% |           0      0.00%    100.00%
system.ruby.L1Cache_Controller.OI.Load::total            2                      
system.ruby.L1Cache_Controller.OI.Ifetch |           2     66.67%     66.67% |           0      0.00%     66.67% |           1     33.33%    100.00% |           0      0.00%    100.00%
system.ruby.L1Cache_Controller.OI.Ifetch::total            3                      
system.ruby.L1Cache_Controller.OI.Writeback_Ack |        1644     49.00%     49.00% |         270      8.05%     57.05% |        1422     42.38%     99.43% |          19      0.57%    100.00%
system.ruby.L1Cache_Controller.OI.Writeback_Ack::total         3355                      
system.ruby.L1Cache_Controller.MI.Load   |           9      1.03%      1.03% |         252     28.73%     29.76% |         616     70.24%    100.00% |           0      0.00%    100.00%
system.ruby.L1Cache_Controller.MI.Load::total          877                      
system.ruby.L1Cache_Controller.MI.Ifetch |           0      0.00%      0.00% |           0      0.00%      0.00% |           1    100.00%    100.00% |           0      0.00%    100.00%
system.ruby.L1Cache_Controller.MI.Ifetch::total            1                      
system.ruby.L1Cache_Controller.MI.Store  |          21     30.43%     30.43% |           5      7.25%     37.68% |          43     62.32%    100.00% |           0      0.00%    100.00%
system.ruby.L1Cache_Controller.MI.Store::total           69                      
system.ruby.L1Cache_Controller.MI.Writeback_Ack |        3509      0.26%      0.26% |      403281     30.00%     30.26% |      937452     69.74%    100.00% |          20      0.00%    100.00%
system.ruby.L1Cache_Controller.MI.Writeback_Ack::total      1344262                      
system.ruby.L1Cache_Controller.ST.Load   |           0      0.00%      0.00% |           0      0.00%      0.00% |           1    100.00%    100.00% |           0      0.00%    100.00%
system.ruby.L1Cache_Controller.ST.Load::total            1                      
system.ruby.L1Cache_Controller.ST.Complete_L2_to_L1 |       32202     15.71%     15.71% |       63609     31.04%     46.75% |       74190     36.20%     82.96% |       34923     17.04%    100.00%
system.ruby.L1Cache_Controller.ST.Complete_L2_to_L1::total       204924                      
system.ruby.L1Cache_Controller.OT.Complete_L2_to_L1 |       17589     41.31%     41.31% |        3421      8.03%     49.34% |       16599     38.98%     88.33% |        4970     11.67%    100.00%
system.ruby.L1Cache_Controller.OT.Complete_L2_to_L1::total        42579                      
system.ruby.L1Cache_Controller.MT.Load   |           0      0.00%      0.00% |           5     35.71%     35.71% |           9     64.29%    100.00% |           0      0.00%    100.00%
system.ruby.L1Cache_Controller.MT.Load::total           14                      
system.ruby.L1Cache_Controller.MT.Store  |           0      0.00%      0.00% |           2     15.38%     15.38% |          11     84.62%    100.00% |           0      0.00%    100.00%
system.ruby.L1Cache_Controller.MT.Store::total           13                      
system.ruby.L1Cache_Controller.MT.Complete_L2_to_L1 |        8246      1.58%      1.58% |      187252     35.86%     37.44% |      325059     62.26%     99.70% |        1546      0.30%    100.00%
system.ruby.L1Cache_Controller.MT.Complete_L2_to_L1::total       522103                      
system.ruby.L1Cache_Controller.MMT.Load  |           0      0.00%      0.00% |           1      4.55%      4.55% |          21     95.45%    100.00% |           0      0.00%    100.00%
system.ruby.L1Cache_Controller.MMT.Load::total           22                      
system.ruby.L1Cache_Controller.MMT.Store |           0      0.00%      0.00% |          56     20.00%     20.00% |         224     80.00%    100.00% |           0      0.00%    100.00%
system.ruby.L1Cache_Controller.MMT.Store::total          280                      
system.ruby.L1Cache_Controller.MMT.Complete_L2_to_L1 |       18723      4.81%      4.81% |      102745     26.37%     31.18% |      261691     67.17%     98.35% |        6432      1.65%    100.00%
system.ruby.L1Cache_Controller.MMT.Complete_L2_to_L1::total       389591                      

---------- End Simulation Statistics   ----------
