
---------- Begin Simulation Statistics ----------
sim_seconds                                  3.613155                       # Number of seconds simulated
sim_ticks                                3613155025500                       # Number of ticks simulated
final_tick                               56054939818501                       # Number of ticks from beginning of simulation (restored from checkpoints and never reset)
sim_freq                                 1000000000000                       # Frequency of simulated ticks
host_inst_rate                                 149666                       # Simulator instruction rate (inst/s)
host_op_rate                                   254894                       # Simulator op (including micro ops) rate (op/s)
host_tick_rate                              267579883                       # Simulator tick rate (ticks/s)
host_mem_usage                                2060024                       # Number of bytes of host memory used
host_seconds                                 13503.09                       # Real time elapsed on the host
sim_insts                                  2020949754                       # Number of instructions simulated
sim_ops                                    3441859688                       # Number of ops (including micro ops) simulated
system.voltage_domain.voltage                       1                       # Voltage in Volts
system.clk_domain.clock                          1000                       # Clock period in ticks
system.mem_ctrls.bytes_read::ruby.dir_cntrl0      1191808                       # Number of bytes read from this memory
system.mem_ctrls.bytes_read::total            1191808                       # Number of bytes read from this memory
system.mem_ctrls.bytes_written::ruby.dir_cntrl0       302496                       # Number of bytes written to this memory
system.mem_ctrls.bytes_written::total          302496                       # Number of bytes written to this memory
system.mem_ctrls.num_reads::ruby.dir_cntrl0        37244                       # Number of read requests responded to by this memory
system.mem_ctrls.num_reads::total               37244                       # Number of read requests responded to by this memory
system.mem_ctrls.num_writes::ruby.dir_cntrl0         9453                       # Number of write requests responded to by this memory
system.mem_ctrls.num_writes::total               9453                       # Number of write requests responded to by this memory
system.mem_ctrls.bw_read::ruby.dir_cntrl0       329852                       # Total read bandwidth from this memory (bytes/s)
system.mem_ctrls.bw_read::total                329852                       # Total read bandwidth from this memory (bytes/s)
system.mem_ctrls.bw_write::ruby.dir_cntrl0        83721                       # Write bandwidth from this memory (bytes/s)
system.mem_ctrls.bw_write::total                83721                       # Write bandwidth from this memory (bytes/s)
system.mem_ctrls.bw_total::ruby.dir_cntrl0       413573                       # Total bandwidth to/from this memory (bytes/s)
system.mem_ctrls.bw_total::total               413573                       # Total bandwidth to/from this memory (bytes/s)
system.mem_ctrls.readReqs                       37244                       # Number of read requests accepted
system.mem_ctrls.writeReqs                       9453                       # Number of write requests accepted
system.mem_ctrls.readBursts                     37244                       # Number of DRAM read bursts, including those serviced by the write queue
system.mem_ctrls.writeBursts                     9453                       # Number of DRAM write bursts, including those merged in the write queue
system.mem_ctrls.bytesReadDRAM                2383104                       # Total number of bytes read from DRAM
system.mem_ctrls.bytesReadWrQ                     512                       # Total number of bytes read from write queue
system.mem_ctrls.bytesWritten                  407296                       # Total number of bytes written to DRAM
system.mem_ctrls.bytesReadSys                 1191808                       # Total read bytes from the system interface side
system.mem_ctrls.bytesWrittenSys               302496                       # Total written bytes from the system interface side
system.mem_ctrls.servicedByWrQ                      8                       # Number of DRAM read bursts serviced by the write queue
system.mem_ctrls.mergedWrBursts                  3066                       # Number of DRAM write bursts merged with an existing one
system.mem_ctrls.neitherReadNorWriteReqs            0                       # Number of requests that are neither read nor write
system.mem_ctrls.perBankRdBursts::0              2804                       # Per bank write bursts
system.mem_ctrls.perBankRdBursts::1              2061                       # Per bank write bursts
system.mem_ctrls.perBankRdBursts::2              1911                       # Per bank write bursts
system.mem_ctrls.perBankRdBursts::3              1819                       # Per bank write bursts
system.mem_ctrls.perBankRdBursts::4              2229                       # Per bank write bursts
system.mem_ctrls.perBankRdBursts::5              2414                       # Per bank write bursts
system.mem_ctrls.perBankRdBursts::6              2866                       # Per bank write bursts
system.mem_ctrls.perBankRdBursts::7              3496                       # Per bank write bursts
system.mem_ctrls.perBankRdBursts::8              1946                       # Per bank write bursts
system.mem_ctrls.perBankRdBursts::9              1753                       # Per bank write bursts
system.mem_ctrls.perBankRdBursts::10             2053                       # Per bank write bursts
system.mem_ctrls.perBankRdBursts::11             1981                       # Per bank write bursts
system.mem_ctrls.perBankRdBursts::12             2196                       # Per bank write bursts
system.mem_ctrls.perBankRdBursts::13             2385                       # Per bank write bursts
system.mem_ctrls.perBankRdBursts::14             3005                       # Per bank write bursts
system.mem_ctrls.perBankRdBursts::15             2317                       # Per bank write bursts
system.mem_ctrls.perBankWrBursts::0               557                       # Per bank write bursts
system.mem_ctrls.perBankWrBursts::1               470                       # Per bank write bursts
system.mem_ctrls.perBankWrBursts::2               483                       # Per bank write bursts
system.mem_ctrls.perBankWrBursts::3               417                       # Per bank write bursts
system.mem_ctrls.perBankWrBursts::4               594                       # Per bank write bursts
system.mem_ctrls.perBankWrBursts::5               412                       # Per bank write bursts
system.mem_ctrls.perBankWrBursts::6               452                       # Per bank write bursts
system.mem_ctrls.perBankWrBursts::7               694                       # Per bank write bursts
system.mem_ctrls.perBankWrBursts::8               125                       # Per bank write bursts
system.mem_ctrls.perBankWrBursts::9                66                       # Per bank write bursts
system.mem_ctrls.perBankWrBursts::10              249                       # Per bank write bursts
system.mem_ctrls.perBankWrBursts::11               98                       # Per bank write bursts
system.mem_ctrls.perBankWrBursts::12              192                       # Per bank write bursts
system.mem_ctrls.perBankWrBursts::13              549                       # Per bank write bursts
system.mem_ctrls.perBankWrBursts::14              703                       # Per bank write bursts
system.mem_ctrls.perBankWrBursts::15              303                       # Per bank write bursts
system.mem_ctrls.numRdRetry                         0                       # Number of times read queue was full causing retry
system.mem_ctrls.numWrRetry                         0                       # Number of times write queue was full causing retry
system.mem_ctrls.totGap                  3613154953000                       # Total gap between requests
system.mem_ctrls.readPktSize::0                     0                       # Read request sizes (log2)
system.mem_ctrls.readPktSize::1                     0                       # Read request sizes (log2)
system.mem_ctrls.readPktSize::2                     0                       # Read request sizes (log2)
system.mem_ctrls.readPktSize::3                     0                       # Read request sizes (log2)
system.mem_ctrls.readPktSize::4                     0                       # Read request sizes (log2)
system.mem_ctrls.readPktSize::5                 37244                       # Read request sizes (log2)
system.mem_ctrls.readPktSize::6                     0                       # Read request sizes (log2)
system.mem_ctrls.writePktSize::0                    0                       # Write request sizes (log2)
system.mem_ctrls.writePktSize::1                    0                       # Write request sizes (log2)
system.mem_ctrls.writePktSize::2                    0                       # Write request sizes (log2)
system.mem_ctrls.writePktSize::3                    0                       # Write request sizes (log2)
system.mem_ctrls.writePktSize::4                    0                       # Write request sizes (log2)
system.mem_ctrls.writePktSize::5                 9453                       # Write request sizes (log2)
system.mem_ctrls.writePktSize::6                    0                       # Write request sizes (log2)
system.mem_ctrls.rdQLenPdf::0                   36887                       # What read queue length does an incoming req see
system.mem_ctrls.rdQLenPdf::1                     339                       # What read queue length does an incoming req see
system.mem_ctrls.rdQLenPdf::2                       9                       # What read queue length does an incoming req see
system.mem_ctrls.rdQLenPdf::3                       1                       # What read queue length does an incoming req see
system.mem_ctrls.rdQLenPdf::4                       0                       # What read queue length does an incoming req see
system.mem_ctrls.rdQLenPdf::5                       0                       # What read queue length does an incoming req see
system.mem_ctrls.rdQLenPdf::6                       0                       # What read queue length does an incoming req see
system.mem_ctrls.rdQLenPdf::7                       0                       # What read queue length does an incoming req see
system.mem_ctrls.rdQLenPdf::8                       0                       # What read queue length does an incoming req see
system.mem_ctrls.rdQLenPdf::9                       0                       # What read queue length does an incoming req see
system.mem_ctrls.rdQLenPdf::10                      0                       # What read queue length does an incoming req see
system.mem_ctrls.rdQLenPdf::11                      0                       # What read queue length does an incoming req see
system.mem_ctrls.rdQLenPdf::12                      0                       # What read queue length does an incoming req see
system.mem_ctrls.rdQLenPdf::13                      0                       # What read queue length does an incoming req see
system.mem_ctrls.rdQLenPdf::14                      0                       # What read queue length does an incoming req see
system.mem_ctrls.rdQLenPdf::15                      0                       # What read queue length does an incoming req see
system.mem_ctrls.rdQLenPdf::16                      0                       # What read queue length does an incoming req see
system.mem_ctrls.rdQLenPdf::17                      0                       # What read queue length does an incoming req see
system.mem_ctrls.rdQLenPdf::18                      0                       # What read queue length does an incoming req see
system.mem_ctrls.rdQLenPdf::19                      0                       # What read queue length does an incoming req see
system.mem_ctrls.rdQLenPdf::20                      0                       # What read queue length does an incoming req see
system.mem_ctrls.rdQLenPdf::21                      0                       # What read queue length does an incoming req see
system.mem_ctrls.rdQLenPdf::22                      0                       # What read queue length does an incoming req see
system.mem_ctrls.rdQLenPdf::23                      0                       # What read queue length does an incoming req see
system.mem_ctrls.rdQLenPdf::24                      0                       # What read queue length does an incoming req see
system.mem_ctrls.rdQLenPdf::25                      0                       # What read queue length does an incoming req see
system.mem_ctrls.rdQLenPdf::26                      0                       # What read queue length does an incoming req see
system.mem_ctrls.rdQLenPdf::27                      0                       # What read queue length does an incoming req see
system.mem_ctrls.rdQLenPdf::28                      0                       # What read queue length does an incoming req see
system.mem_ctrls.rdQLenPdf::29                      0                       # What read queue length does an incoming req see
system.mem_ctrls.rdQLenPdf::30                      0                       # What read queue length does an incoming req see
system.mem_ctrls.rdQLenPdf::31                      0                       # What read queue length does an incoming req see
system.mem_ctrls.wrQLenPdf::0                       0                       # What write queue length does an incoming req see
system.mem_ctrls.wrQLenPdf::1                       0                       # What write queue length does an incoming req see
system.mem_ctrls.wrQLenPdf::2                       0                       # What write queue length does an incoming req see
system.mem_ctrls.wrQLenPdf::3                       1                       # What write queue length does an incoming req see
system.mem_ctrls.wrQLenPdf::4                       1                       # What write queue length does an incoming req see
system.mem_ctrls.wrQLenPdf::5                       1                       # What write queue length does an incoming req see
system.mem_ctrls.wrQLenPdf::6                       1                       # What write queue length does an incoming req see
system.mem_ctrls.wrQLenPdf::7                       1                       # What write queue length does an incoming req see
system.mem_ctrls.wrQLenPdf::8                       1                       # What write queue length does an incoming req see
system.mem_ctrls.wrQLenPdf::9                       1                       # What write queue length does an incoming req see
system.mem_ctrls.wrQLenPdf::10                      1                       # What write queue length does an incoming req see
system.mem_ctrls.wrQLenPdf::11                      1                       # What write queue length does an incoming req see
system.mem_ctrls.wrQLenPdf::12                      1                       # What write queue length does an incoming req see
system.mem_ctrls.wrQLenPdf::13                      1                       # What write queue length does an incoming req see
system.mem_ctrls.wrQLenPdf::14                      1                       # What write queue length does an incoming req see
system.mem_ctrls.wrQLenPdf::15                    239                       # What write queue length does an incoming req see
system.mem_ctrls.wrQLenPdf::16                    274                       # What write queue length does an incoming req see
system.mem_ctrls.wrQLenPdf::17                    324                       # What write queue length does an incoming req see
system.mem_ctrls.wrQLenPdf::18                    394                       # What write queue length does an incoming req see
system.mem_ctrls.wrQLenPdf::19                    373                       # What write queue length does an incoming req see
system.mem_ctrls.wrQLenPdf::20                    356                       # What write queue length does an incoming req see
system.mem_ctrls.wrQLenPdf::21                    404                       # What write queue length does an incoming req see
system.mem_ctrls.wrQLenPdf::22                    370                       # What write queue length does an incoming req see
system.mem_ctrls.wrQLenPdf::23                    410                       # What write queue length does an incoming req see
system.mem_ctrls.wrQLenPdf::24                    377                       # What write queue length does an incoming req see
system.mem_ctrls.wrQLenPdf::25                    355                       # What write queue length does an incoming req see
system.mem_ctrls.wrQLenPdf::26                    365                       # What write queue length does an incoming req see
system.mem_ctrls.wrQLenPdf::27                    367                       # What write queue length does an incoming req see
system.mem_ctrls.wrQLenPdf::28                    370                       # What write queue length does an incoming req see
system.mem_ctrls.wrQLenPdf::29                    350                       # What write queue length does an incoming req see
system.mem_ctrls.wrQLenPdf::30                    342                       # What write queue length does an incoming req see
system.mem_ctrls.wrQLenPdf::31                    343                       # What write queue length does an incoming req see
system.mem_ctrls.wrQLenPdf::32                    340                       # What write queue length does an incoming req see
system.mem_ctrls.wrQLenPdf::33                      8                       # What write queue length does an incoming req see
system.mem_ctrls.wrQLenPdf::34                      5                       # What write queue length does an incoming req see
system.mem_ctrls.wrQLenPdf::35                      3                       # What write queue length does an incoming req see
system.mem_ctrls.wrQLenPdf::36                      2                       # What write queue length does an incoming req see
system.mem_ctrls.wrQLenPdf::37                      1                       # What write queue length does an incoming req see
system.mem_ctrls.wrQLenPdf::38                      1                       # What write queue length does an incoming req see
system.mem_ctrls.wrQLenPdf::39                      1                       # What write queue length does an incoming req see
system.mem_ctrls.wrQLenPdf::40                      1                       # What write queue length does an incoming req see
system.mem_ctrls.wrQLenPdf::41                      0                       # What write queue length does an incoming req see
system.mem_ctrls.wrQLenPdf::42                      0                       # What write queue length does an incoming req see
system.mem_ctrls.wrQLenPdf::43                      0                       # What write queue length does an incoming req see
system.mem_ctrls.wrQLenPdf::44                      0                       # What write queue length does an incoming req see
system.mem_ctrls.wrQLenPdf::45                      0                       # What write queue length does an incoming req see
system.mem_ctrls.wrQLenPdf::46                      0                       # What write queue length does an incoming req see
system.mem_ctrls.wrQLenPdf::47                      0                       # What write queue length does an incoming req see
system.mem_ctrls.wrQLenPdf::48                      0                       # What write queue length does an incoming req see
system.mem_ctrls.wrQLenPdf::49                      0                       # What write queue length does an incoming req see
system.mem_ctrls.wrQLenPdf::50                      0                       # What write queue length does an incoming req see
system.mem_ctrls.wrQLenPdf::51                      0                       # What write queue length does an incoming req see
system.mem_ctrls.wrQLenPdf::52                      0                       # What write queue length does an incoming req see
system.mem_ctrls.wrQLenPdf::53                      0                       # What write queue length does an incoming req see
system.mem_ctrls.wrQLenPdf::54                      0                       # What write queue length does an incoming req see
system.mem_ctrls.wrQLenPdf::55                      0                       # What write queue length does an incoming req see
system.mem_ctrls.wrQLenPdf::56                      0                       # What write queue length does an incoming req see
system.mem_ctrls.wrQLenPdf::57                      0                       # What write queue length does an incoming req see
system.mem_ctrls.wrQLenPdf::58                      0                       # What write queue length does an incoming req see
system.mem_ctrls.wrQLenPdf::59                      0                       # What write queue length does an incoming req see
system.mem_ctrls.wrQLenPdf::60                      0                       # What write queue length does an incoming req see
system.mem_ctrls.wrQLenPdf::61                      0                       # What write queue length does an incoming req see
system.mem_ctrls.wrQLenPdf::62                      0                       # What write queue length does an incoming req see
system.mem_ctrls.wrQLenPdf::63                      0                       # What write queue length does an incoming req see
system.mem_ctrls.bytesPerActivate::samples         8910                       # Bytes accessed per row activation
system.mem_ctrls.bytesPerActivate::mean    313.212121                       # Bytes accessed per row activation
system.mem_ctrls.bytesPerActivate::gmean   176.135807                       # Bytes accessed per row activation
system.mem_ctrls.bytesPerActivate::stdev   351.837690                       # Bytes accessed per row activation
system.mem_ctrls.bytesPerActivate::0-127         3417     38.35%     38.35% # Bytes accessed per row activation
system.mem_ctrls.bytesPerActivate::128-255         2378     26.69%     65.04% # Bytes accessed per row activation
system.mem_ctrls.bytesPerActivate::256-383          740      8.31%     73.34% # Bytes accessed per row activation
system.mem_ctrls.bytesPerActivate::384-511          354      3.97%     77.32% # Bytes accessed per row activation
system.mem_ctrls.bytesPerActivate::512-639          221      2.48%     79.80% # Bytes accessed per row activation
system.mem_ctrls.bytesPerActivate::640-767          148      1.66%     81.46% # Bytes accessed per row activation
system.mem_ctrls.bytesPerActivate::768-895          125      1.40%     82.86% # Bytes accessed per row activation
system.mem_ctrls.bytesPerActivate::896-1023          122      1.37%     84.23% # Bytes accessed per row activation
system.mem_ctrls.bytesPerActivate::1024-1151         1405     15.77%    100.00% # Bytes accessed per row activation
system.mem_ctrls.bytesPerActivate::total         8910                       # Bytes accessed per row activation
system.mem_ctrls.rdPerTurnAround::samples          339                       # Reads before turning the bus around for writes
system.mem_ctrls.rdPerTurnAround::mean     199.681416                       # Reads before turning the bus around for writes
system.mem_ctrls.rdPerTurnAround::stdev   1764.077273                       # Reads before turning the bus around for writes
system.mem_ctrls.rdPerTurnAround::0-1023          330     97.35%     97.35% # Reads before turning the bus around for writes
system.mem_ctrls.rdPerTurnAround::1024-2047            7      2.06%     99.41% # Reads before turning the bus around for writes
system.mem_ctrls.rdPerTurnAround::2048-3071            1      0.29%     99.71% # Reads before turning the bus around for writes
system.mem_ctrls.rdPerTurnAround::31744-32767            1      0.29%    100.00% # Reads before turning the bus around for writes
system.mem_ctrls.rdPerTurnAround::total           339                       # Reads before turning the bus around for writes
system.mem_ctrls.wrPerTurnAround::samples          339                       # Writes before turning the bus around for reads
system.mem_ctrls.wrPerTurnAround::mean      18.772861                       # Writes before turning the bus around for reads
system.mem_ctrls.wrPerTurnAround::gmean     18.606560                       # Writes before turning the bus around for reads
system.mem_ctrls.wrPerTurnAround::stdev      2.632023                       # Writes before turning the bus around for reads
system.mem_ctrls.wrPerTurnAround::16               94     27.73%     27.73% # Writes before turning the bus around for reads
system.mem_ctrls.wrPerTurnAround::17                6      1.77%     29.50% # Writes before turning the bus around for reads
system.mem_ctrls.wrPerTurnAround::18               96     28.32%     57.82% # Writes before turning the bus around for reads
system.mem_ctrls.wrPerTurnAround::19               26      7.67%     65.49% # Writes before turning the bus around for reads
system.mem_ctrls.wrPerTurnAround::20               43     12.68%     78.17% # Writes before turning the bus around for reads
system.mem_ctrls.wrPerTurnAround::21                9      2.65%     80.83% # Writes before turning the bus around for reads
system.mem_ctrls.wrPerTurnAround::22               46     13.57%     94.40% # Writes before turning the bus around for reads
system.mem_ctrls.wrPerTurnAround::23                7      2.06%     96.46% # Writes before turning the bus around for reads
system.mem_ctrls.wrPerTurnAround::24                8      2.36%     98.82% # Writes before turning the bus around for reads
system.mem_ctrls.wrPerTurnAround::26                1      0.29%     99.12% # Writes before turning the bus around for reads
system.mem_ctrls.wrPerTurnAround::28                1      0.29%     99.41% # Writes before turning the bus around for reads
system.mem_ctrls.wrPerTurnAround::32                1      0.29%     99.71% # Writes before turning the bus around for reads
system.mem_ctrls.wrPerTurnAround::36                1      0.29%    100.00% # Writes before turning the bus around for reads
system.mem_ctrls.wrPerTurnAround::total           339                       # Writes before turning the bus around for reads
system.mem_ctrls.totQLat                    227191000                       # Total ticks spent queuing
system.mem_ctrls.totMemAccLat               925366000                       # Total ticks spent from burst creation until serviced by the DRAM
system.mem_ctrls.totBusLat                  186180000                       # Total ticks spent in databus transfers
system.mem_ctrls.avgQLat                      6101.38                       # Average queueing delay per DRAM burst
system.mem_ctrls.avgBusLat                    5000.00                       # Average bus latency per DRAM burst
system.mem_ctrls.avgMemAccLat                24851.38                       # Average memory access latency per DRAM burst
system.mem_ctrls.avgRdBW                         0.66                       # Average DRAM read bandwidth in MiByte/s
system.mem_ctrls.avgWrBW                         0.11                       # Average achieved write bandwidth in MiByte/s
system.mem_ctrls.avgRdBWSys                      0.33                       # Average system read bandwidth in MiByte/s
system.mem_ctrls.avgWrBWSys                      0.08                       # Average system write bandwidth in MiByte/s
system.mem_ctrls.peakBW                      12800.00                       # Theoretical peak bandwidth in MiByte/s
system.mem_ctrls.busUtil                         0.01                       # Data bus utilization in percentage
system.mem_ctrls.busUtilRead                     0.01                       # Data bus utilization in percentage for reads
system.mem_ctrls.busUtilWrite                    0.00                       # Data bus utilization in percentage for writes
system.mem_ctrls.avgRdQLen                       1.00                       # Average read queue length when enqueuing
system.mem_ctrls.avgWrQLen                      25.36                       # Average write queue length when enqueuing
system.mem_ctrls.readRowHits                    30358                       # Number of row buffer hits during reads
system.mem_ctrls.writeRowHits                    4333                       # Number of row buffer hits during writes
system.mem_ctrls.readRowHitRate                 81.53                       # Row buffer hit rate for reads
system.mem_ctrls.writeRowHitRate                67.84                       # Row buffer hit rate for writes
system.mem_ctrls.avgGap                   77374455.60                       # Average gap between requests
system.mem_ctrls.pageHitRate                    79.52                       # Row buffer hit rate, read and write combined
system.mem_ctrls_0.actEnergy                 55830600                       # Energy for activate commands per rank (pJ)
system.mem_ctrls_0.preEnergy                 30463125                       # Energy for precharge commands per rank (pJ)
system.mem_ctrls_0.readEnergy               261612000                       # Energy for read commands per rank (pJ)
system.mem_ctrls_0.writeEnergy               26431920                       # Energy for write commands per rank (pJ)
system.mem_ctrls_0.refreshEnergy         236284095840                       # Energy for refresh commands per rank (pJ)
system.mem_ctrls_0.actBackEnergy          83831135760                       # Energy for active background per rank (pJ)
system.mem_ctrls_0.preBackEnergy         2097024526500                       # Energy for precharge background per rank (pJ)
system.mem_ctrls_0.totalEnergy           2417514095745                       # Total energy per rank (pJ)
system.mem_ctrls_0.averagePower            668.264434                       # Core power per rank (mW)
system.mem_ctrls_0.memoryStateTime::IDLE 3487012819750                       # Time in different power states
system.mem_ctrls_0.memoryStateTime::REF  120651180000                       # Time in different power states
system.mem_ctrls_0.memoryStateTime::PRE_PDN            0                       # Time in different power states
system.mem_ctrls_0.memoryStateTime::ACT    5491392750                       # Time in different power states
system.mem_ctrls_0.memoryStateTime::ACT_PDN            0                       # Time in different power states
system.mem_ctrls_1.actEnergy                 53668440                       # Energy for activate commands per rank (pJ)
system.mem_ctrls_1.preEnergy                 29283375                       # Energy for precharge commands per rank (pJ)
system.mem_ctrls_1.readEnergy               266682000                       # Energy for read commands per rank (pJ)
system.mem_ctrls_1.writeEnergy               14806800                       # Energy for write commands per rank (pJ)
system.mem_ctrls_1.refreshEnergy         236284095840                       # Energy for refresh commands per rank (pJ)
system.mem_ctrls_1.actBackEnergy          84128199525                       # Energy for active background per rank (pJ)
system.mem_ctrls_1.preBackEnergy         2096763944250                       # Energy for precharge background per rank (pJ)
system.mem_ctrls_1.totalEnergy           2417540680230                       # Total energy per rank (pJ)
system.mem_ctrls_1.averagePower            668.271782                       # Core power per rank (mW)
system.mem_ctrls_1.memoryStateTime::IDLE 3486705657000                       # Time in different power states
system.mem_ctrls_1.memoryStateTime::REF  120651180000                       # Time in different power states
system.mem_ctrls_1.memoryStateTime::PRE_PDN            0                       # Time in different power states
system.mem_ctrls_1.memoryStateTime::ACT    5793578250                       # Time in different power states
system.mem_ctrls_1.memoryStateTime::ACT_PDN            0                       # Time in different power states
system.cpu_voltage_domain.voltage                   1                       # Voltage in Volts
system.cpu_clk_domain.clock                       500                       # Clock period in ticks
system.cpu0.apic_clk_domain.clock                8000                       # Clock period in ticks
system.cpu0.numCycles                      7229561272                       # number of cpu cycles simulated
system.cpu0.numWorkItemsStarted                     0                       # number of work items this cpu started
system.cpu0.numWorkItemsCompleted                   0                       # number of work items this cpu completed
system.cpu0.kern.inst.arm                           0                       # number of arm instructions executed
system.cpu0.kern.inst.quiesce                       0                       # number of quiesce instructions executed
system.cpu0.committedInsts                 1994441932                       # Number of instructions committed
system.cpu0.committedOps                   3392922398                       # Number of ops (including micro ops) committed
system.cpu0.num_int_alu_accesses           2757566759                       # Number of integer alu accesses
system.cpu0.num_fp_alu_accesses            1010088632                       # Number of float alu accesses
system.cpu0.num_func_calls                   49947128                       # number of times a function call or return occured
system.cpu0.num_conditional_control_insts    199812731                       # number of instructions that are conditional controls
system.cpu0.num_int_insts                  2757566759                       # number of integer instructions
system.cpu0.num_fp_insts                   1010088632                       # number of float instructions
system.cpu0.num_int_register_reads         5218335740                       # number of times the integer registers were read
system.cpu0.num_int_register_writes        2052607443                       # number of times the integer registers were written
system.cpu0.num_fp_register_reads          1701898935                       # number of times the floating registers were read
system.cpu0.num_fp_register_writes          899765754                       # number of times the floating registers were written
system.cpu0.num_cc_register_reads          1288632132                       # number of times the CC registers were read
system.cpu0.num_cc_register_writes         1039373544                       # number of times the CC registers were written
system.cpu0.num_mem_refs                    738245131                       # number of memory refs
system.cpu0.num_load_insts                  571809890                       # Number of load instructions
system.cpu0.num_store_insts                 166435241                       # Number of store instructions
system.cpu0.num_idle_cycles              65268453.011409                       # Number of idle cycles
system.cpu0.num_busy_cycles              7164292818.988591                       # Number of busy cycles
system.cpu0.not_idle_fraction                0.990972                       # Percentage of non-idle cycles
system.cpu0.idle_fraction                    0.009028                       # Percentage of idle cycles
system.cpu0.Branches                        261172637                       # Number of branches fetched
system.cpu0.op_class::No_OpClass              1512172      0.04%      0.04% # Class of executed instruction
system.cpu0.op_class::IntAlu               2189292134     64.53%     64.57% # Class of executed instruction
system.cpu0.op_class::IntMult                24043373      0.71%     65.28% # Class of executed instruction
system.cpu0.op_class::IntDiv                   210288      0.01%     65.28% # Class of executed instruction
system.cpu0.op_class::FloatAdd              439619455     12.96%     78.24% # Class of executed instruction
system.cpu0.op_class::FloatCmp                      0      0.00%     78.24% # Class of executed instruction
system.cpu0.op_class::FloatCvt                      0      0.00%     78.24% # Class of executed instruction
system.cpu0.op_class::FloatMult                     0      0.00%     78.24% # Class of executed instruction
system.cpu0.op_class::FloatDiv                      0      0.00%     78.24% # Class of executed instruction
system.cpu0.op_class::FloatSqrt                     0      0.00%     78.24% # Class of executed instruction
system.cpu0.op_class::SimdAdd                       0      0.00%     78.24% # Class of executed instruction
system.cpu0.op_class::SimdAddAcc                    0      0.00%     78.24% # Class of executed instruction
system.cpu0.op_class::SimdAlu                       0      0.00%     78.24% # Class of executed instruction
system.cpu0.op_class::SimdCmp                       0      0.00%     78.24% # Class of executed instruction
system.cpu0.op_class::SimdCvt                       0      0.00%     78.24% # Class of executed instruction
system.cpu0.op_class::SimdMisc                      0      0.00%     78.24% # Class of executed instruction
system.cpu0.op_class::SimdMult                      0      0.00%     78.24% # Class of executed instruction
system.cpu0.op_class::SimdMultAcc                   0      0.00%     78.24% # Class of executed instruction
system.cpu0.op_class::SimdShift                     0      0.00%     78.24% # Class of executed instruction
system.cpu0.op_class::SimdShiftAcc                  0      0.00%     78.24% # Class of executed instruction
system.cpu0.op_class::SimdSqrt                      0      0.00%     78.24% # Class of executed instruction
system.cpu0.op_class::SimdFloatAdd                  0      0.00%     78.24% # Class of executed instruction
system.cpu0.op_class::SimdFloatAlu                  0      0.00%     78.24% # Class of executed instruction
system.cpu0.op_class::SimdFloatCmp                  0      0.00%     78.24% # Class of executed instruction
system.cpu0.op_class::SimdFloatCvt                  0      0.00%     78.24% # Class of executed instruction
system.cpu0.op_class::SimdFloatDiv                  0      0.00%     78.24% # Class of executed instruction
system.cpu0.op_class::SimdFloatMisc                 0      0.00%     78.24% # Class of executed instruction
system.cpu0.op_class::SimdFloatMult                 0      0.00%     78.24% # Class of executed instruction
system.cpu0.op_class::SimdFloatMultAcc              0      0.00%     78.24% # Class of executed instruction
system.cpu0.op_class::SimdFloatSqrt                 0      0.00%     78.24% # Class of executed instruction
system.cpu0.op_class::MemRead               571809890     16.85%     95.09% # Class of executed instruction
system.cpu0.op_class::MemWrite              166435241      4.91%    100.00% # Class of executed instruction
system.cpu0.op_class::IprAccess                     0      0.00%    100.00% # Class of executed instruction
system.cpu0.op_class::InstPrefetch                  0      0.00%    100.00% # Class of executed instruction
system.cpu0.op_class::total                3392922553                       # Class of executed instruction
system.cpu1.apic_clk_domain.clock                8000                       # Clock period in ticks
system.cpu1.numCycles                      7227992508                       # number of cpu cycles simulated
system.cpu1.numWorkItemsStarted                     0                       # number of work items this cpu started
system.cpu1.numWorkItemsCompleted                   0                       # number of work items this cpu completed
system.cpu1.kern.inst.arm                           0                       # number of arm instructions executed
system.cpu1.kern.inst.quiesce                       0                       # number of quiesce instructions executed
system.cpu1.committedInsts                    2724120                       # Number of instructions committed
system.cpu1.committedOps                      5835632                       # Number of ops (including micro ops) committed
system.cpu1.num_int_alu_accesses              5710537                       # Number of integer alu accesses
system.cpu1.num_fp_alu_accesses                    65                       # Number of float alu accesses
system.cpu1.num_func_calls                     158817                       # number of times a function call or return occured
system.cpu1.num_conditional_control_insts       419415                       # number of instructions that are conditional controls
system.cpu1.num_int_insts                     5710537                       # number of integer instructions
system.cpu1.num_fp_insts                           65                       # number of float instructions
system.cpu1.num_int_register_reads           11571916                       # number of times the integer registers were read
system.cpu1.num_int_register_writes           4733593                       # number of times the integer registers were written
system.cpu1.num_fp_register_reads                  82                       # number of times the floating registers were read
system.cpu1.num_fp_register_writes                 44                       # number of times the floating registers were written
system.cpu1.num_cc_register_reads             3327741                       # number of times the CC registers were read
system.cpu1.num_cc_register_writes            1749115                       # number of times the CC registers were written
system.cpu1.num_mem_refs                      1376285                       # number of memory refs
system.cpu1.num_load_insts                     855669                       # Number of load instructions
system.cpu1.num_store_insts                    520616                       # Number of store instructions
system.cpu1.num_idle_cycles              7216017418.563100                       # Number of idle cycles
system.cpu1.num_busy_cycles              11975089.436899                       # Number of busy cycles
system.cpu1.not_idle_fraction                0.001657                       # Percentage of non-idle cycles
system.cpu1.idle_fraction                    0.998343                       # Percentage of idle cycles
system.cpu1.Branches                           629777                       # Number of branches fetched
system.cpu1.op_class::No_OpClass               105797      1.81%      1.81% # Class of executed instruction
system.cpu1.op_class::IntAlu                  4303777     73.75%     75.56% # Class of executed instruction
system.cpu1.op_class::IntMult                   11654      0.20%     75.76% # Class of executed instruction
system.cpu1.op_class::IntDiv                    38117      0.65%     76.42% # Class of executed instruction
system.cpu1.op_class::FloatAdd                     22      0.00%     76.42% # Class of executed instruction
system.cpu1.op_class::FloatCmp                      0      0.00%     76.42% # Class of executed instruction
system.cpu1.op_class::FloatCvt                      0      0.00%     76.42% # Class of executed instruction
system.cpu1.op_class::FloatMult                     0      0.00%     76.42% # Class of executed instruction
system.cpu1.op_class::FloatDiv                      0      0.00%     76.42% # Class of executed instruction
system.cpu1.op_class::FloatSqrt                     0      0.00%     76.42% # Class of executed instruction
system.cpu1.op_class::SimdAdd                       0      0.00%     76.42% # Class of executed instruction
system.cpu1.op_class::SimdAddAcc                    0      0.00%     76.42% # Class of executed instruction
system.cpu1.op_class::SimdAlu                       0      0.00%     76.42% # Class of executed instruction
system.cpu1.op_class::SimdCmp                       0      0.00%     76.42% # Class of executed instruction
system.cpu1.op_class::SimdCvt                       0      0.00%     76.42% # Class of executed instruction
system.cpu1.op_class::SimdMisc                      0      0.00%     76.42% # Class of executed instruction
system.cpu1.op_class::SimdMult                      0      0.00%     76.42% # Class of executed instruction
system.cpu1.op_class::SimdMultAcc                   0      0.00%     76.42% # Class of executed instruction
system.cpu1.op_class::SimdShift                     0      0.00%     76.42% # Class of executed instruction
system.cpu1.op_class::SimdShiftAcc                  0      0.00%     76.42% # Class of executed instruction
system.cpu1.op_class::SimdSqrt                      0      0.00%     76.42% # Class of executed instruction
system.cpu1.op_class::SimdFloatAdd                  0      0.00%     76.42% # Class of executed instruction
system.cpu1.op_class::SimdFloatAlu                  0      0.00%     76.42% # Class of executed instruction
system.cpu1.op_class::SimdFloatCmp                  0      0.00%     76.42% # Class of executed instruction
system.cpu1.op_class::SimdFloatCvt                  0      0.00%     76.42% # Class of executed instruction
system.cpu1.op_class::SimdFloatDiv                  0      0.00%     76.42% # Class of executed instruction
system.cpu1.op_class::SimdFloatMisc                 0      0.00%     76.42% # Class of executed instruction
system.cpu1.op_class::SimdFloatMult                 0      0.00%     76.42% # Class of executed instruction
system.cpu1.op_class::SimdFloatMultAcc              0      0.00%     76.42% # Class of executed instruction
system.cpu1.op_class::SimdFloatSqrt                 0      0.00%     76.42% # Class of executed instruction
system.cpu1.op_class::MemRead                  855669     14.66%     91.08% # Class of executed instruction
system.cpu1.op_class::MemWrite                 520616      8.92%    100.00% # Class of executed instruction
system.cpu1.op_class::IprAccess                     0      0.00%    100.00% # Class of executed instruction
system.cpu1.op_class::InstPrefetch                  0      0.00%    100.00% # Class of executed instruction
system.cpu1.op_class::total                   5835652                       # Class of executed instruction
system.cpu2.apic_clk_domain.clock                8000                       # Clock period in ticks
system.cpu2.numCycles                      7225833210                       # number of cpu cycles simulated
system.cpu2.numWorkItemsStarted                     0                       # number of work items this cpu started
system.cpu2.numWorkItemsCompleted                   0                       # number of work items this cpu completed
system.cpu2.kern.inst.arm                           0                       # number of arm instructions executed
system.cpu2.kern.inst.quiesce                       0                       # number of quiesce instructions executed
system.cpu2.committedInsts                    3284589                       # Number of instructions committed
system.cpu2.committedOps                      6844721                       # Number of ops (including micro ops) committed
system.cpu2.num_int_alu_accesses              6708377                       # Number of integer alu accesses
system.cpu2.num_fp_alu_accesses                  1837                       # Number of float alu accesses
system.cpu2.num_func_calls                     174142                       # number of times a function call or return occured
system.cpu2.num_conditional_control_insts       507779                       # number of instructions that are conditional controls
system.cpu2.num_int_insts                     6708377                       # number of integer instructions
system.cpu2.num_fp_insts                         1837                       # number of float instructions
system.cpu2.num_int_register_reads           13614954                       # number of times the integer registers were read
system.cpu2.num_int_register_writes           5539792                       # number of times the integer registers were written
system.cpu2.num_fp_register_reads                3081                       # number of times the floating registers were read
system.cpu2.num_fp_register_writes               1457                       # number of times the floating registers were written
system.cpu2.num_cc_register_reads             3903779                       # number of times the CC registers were read
system.cpu2.num_cc_register_writes            2113157                       # number of times the CC registers were written
system.cpu2.num_mem_refs                      1601452                       # number of memory refs
system.cpu2.num_load_insts                     992407                       # Number of load instructions
system.cpu2.num_store_insts                    609045                       # Number of store instructions
system.cpu2.num_idle_cycles              7211251578.262564                       # Number of idle cycles
system.cpu2.num_busy_cycles              14581631.737436                       # Number of busy cycles
system.cpu2.not_idle_fraction                0.002018                       # Percentage of non-idle cycles
system.cpu2.idle_fraction                    0.997982                       # Percentage of idle cycles
system.cpu2.Branches                           741061                       # Number of branches fetched
system.cpu2.op_class::No_OpClass               111551      1.63%      1.63% # Class of executed instruction
system.cpu2.op_class::IntAlu                  5078482     74.19%     75.82% # Class of executed instruction
system.cpu2.op_class::IntMult                   12403      0.18%     76.01% # Class of executed instruction
system.cpu2.op_class::IntDiv                    39554      0.58%     76.58% # Class of executed instruction
system.cpu2.op_class::FloatAdd                   1366      0.02%     76.60% # Class of executed instruction
system.cpu2.op_class::FloatCmp                      0      0.00%     76.60% # Class of executed instruction
system.cpu2.op_class::FloatCvt                      0      0.00%     76.60% # Class of executed instruction
system.cpu2.op_class::FloatMult                     0      0.00%     76.60% # Class of executed instruction
system.cpu2.op_class::FloatDiv                      0      0.00%     76.60% # Class of executed instruction
system.cpu2.op_class::FloatSqrt                     0      0.00%     76.60% # Class of executed instruction
system.cpu2.op_class::SimdAdd                       0      0.00%     76.60% # Class of executed instruction
system.cpu2.op_class::SimdAddAcc                    0      0.00%     76.60% # Class of executed instruction
system.cpu2.op_class::SimdAlu                       0      0.00%     76.60% # Class of executed instruction
system.cpu2.op_class::SimdCmp                       0      0.00%     76.60% # Class of executed instruction
system.cpu2.op_class::SimdCvt                       0      0.00%     76.60% # Class of executed instruction
system.cpu2.op_class::SimdMisc                      0      0.00%     76.60% # Class of executed instruction
system.cpu2.op_class::SimdMult                      0      0.00%     76.60% # Class of executed instruction
system.cpu2.op_class::SimdMultAcc                   0      0.00%     76.60% # Class of executed instruction
system.cpu2.op_class::SimdShift                     0      0.00%     76.60% # Class of executed instruction
system.cpu2.op_class::SimdShiftAcc                  0      0.00%     76.60% # Class of executed instruction
system.cpu2.op_class::SimdSqrt                      0      0.00%     76.60% # Class of executed instruction
system.cpu2.op_class::SimdFloatAdd                  0      0.00%     76.60% # Class of executed instruction
system.cpu2.op_class::SimdFloatAlu                  0      0.00%     76.60% # Class of executed instruction
system.cpu2.op_class::SimdFloatCmp                  0      0.00%     76.60% # Class of executed instruction
system.cpu2.op_class::SimdFloatCvt                  0      0.00%     76.60% # Class of executed instruction
system.cpu2.op_class::SimdFloatDiv                  0      0.00%     76.60% # Class of executed instruction
system.cpu2.op_class::SimdFloatMisc                 0      0.00%     76.60% # Class of executed instruction
system.cpu2.op_class::SimdFloatMult                 0      0.00%     76.60% # Class of executed instruction
system.cpu2.op_class::SimdFloatMultAcc              0      0.00%     76.60% # Class of executed instruction
system.cpu2.op_class::SimdFloatSqrt                 0      0.00%     76.60% # Class of executed instruction
system.cpu2.op_class::MemRead                  992407     14.50%     91.10% # Class of executed instruction
system.cpu2.op_class::MemWrite                 609045      8.90%    100.00% # Class of executed instruction
system.cpu2.op_class::IprAccess                     0      0.00%    100.00% # Class of executed instruction
system.cpu2.op_class::InstPrefetch                  0      0.00%    100.00% # Class of executed instruction
system.cpu2.op_class::total                   6844808                       # Class of executed instruction
system.cpu3.apic_clk_domain.clock                8000                       # Clock period in ticks
system.cpu3.numCycles                      7224540271                       # number of cpu cycles simulated
system.cpu3.numWorkItemsStarted                     0                       # number of work items this cpu started
system.cpu3.numWorkItemsCompleted                   0                       # number of work items this cpu completed
system.cpu3.kern.inst.arm                           0                       # number of arm instructions executed
system.cpu3.kern.inst.quiesce                       0                       # number of quiesce instructions executed
system.cpu3.committedInsts                   19110473                       # Number of instructions committed
system.cpu3.committedOps                     33696572                       # Number of ops (including micro ops) committed
system.cpu3.num_int_alu_accesses             28309872                       # Number of integer alu accesses
system.cpu3.num_fp_alu_accesses               8399271                       # Number of float alu accesses
system.cpu3.num_func_calls                     575275                       # number of times a function call or return occured
system.cpu3.num_conditional_control_insts      2013981                       # number of instructions that are conditional controls
system.cpu3.num_int_insts                    28309872                       # number of integer instructions
system.cpu3.num_fp_insts                      8399271                       # number of float instructions
system.cpu3.num_int_register_reads           54590097                       # number of times the integer registers were read
system.cpu3.num_int_register_writes          21511427                       # number of times the integer registers were written
system.cpu3.num_fp_register_reads            14064247                       # number of times the floating registers were read
system.cpu3.num_fp_register_writes            7474237                       # number of times the floating registers were written
system.cpu3.num_cc_register_reads            13711449                       # number of times the CC registers were read
system.cpu3.num_cc_register_writes           10140881                       # number of times the CC registers were written
system.cpu3.num_mem_refs                      7548717                       # number of memory refs
system.cpu3.num_load_insts                    5637587                       # Number of load instructions
system.cpu3.num_store_insts                   1911130                       # Number of store instructions
system.cpu3.num_idle_cycles              7152888624.356881                       # Number of idle cycles
system.cpu3.num_busy_cycles              71651646.643119                       # Number of busy cycles
system.cpu3.not_idle_fraction                0.009918                       # Percentage of non-idle cycles
system.cpu3.idle_fraction                    0.990082                       # Percentage of idle cycles
system.cpu3.Branches                          2737392                       # Number of branches fetched
system.cpu3.op_class::No_OpClass               118074      0.35%      0.35% # Class of executed instruction
system.cpu3.op_class::IntAlu                 22159163     65.76%     66.11% # Class of executed instruction
system.cpu3.op_class::IntMult                  212611      0.63%     66.74% # Class of executed instruction
system.cpu3.op_class::IntDiv                    39853      0.12%     66.86% # Class of executed instruction
system.cpu3.op_class::FloatAdd                3618197     10.74%     77.60% # Class of executed instruction
system.cpu3.op_class::FloatCmp                      0      0.00%     77.60% # Class of executed instruction
system.cpu3.op_class::FloatCvt                      0      0.00%     77.60% # Class of executed instruction
system.cpu3.op_class::FloatMult                     0      0.00%     77.60% # Class of executed instruction
system.cpu3.op_class::FloatDiv                      0      0.00%     77.60% # Class of executed instruction
system.cpu3.op_class::FloatSqrt                     0      0.00%     77.60% # Class of executed instruction
system.cpu3.op_class::SimdAdd                       0      0.00%     77.60% # Class of executed instruction
system.cpu3.op_class::SimdAddAcc                    0      0.00%     77.60% # Class of executed instruction
system.cpu3.op_class::SimdAlu                       0      0.00%     77.60% # Class of executed instruction
system.cpu3.op_class::SimdCmp                       0      0.00%     77.60% # Class of executed instruction
system.cpu3.op_class::SimdCvt                       0      0.00%     77.60% # Class of executed instruction
system.cpu3.op_class::SimdMisc                      0      0.00%     77.60% # Class of executed instruction
system.cpu3.op_class::SimdMult                      0      0.00%     77.60% # Class of executed instruction
system.cpu3.op_class::SimdMultAcc                   0      0.00%     77.60% # Class of executed instruction
system.cpu3.op_class::SimdShift                     0      0.00%     77.60% # Class of executed instruction
system.cpu3.op_class::SimdShiftAcc                  0      0.00%     77.60% # Class of executed instruction
system.cpu3.op_class::SimdSqrt                      0      0.00%     77.60% # Class of executed instruction
system.cpu3.op_class::SimdFloatAdd                  0      0.00%     77.60% # Class of executed instruction
system.cpu3.op_class::SimdFloatAlu                  0      0.00%     77.60% # Class of executed instruction
system.cpu3.op_class::SimdFloatCmp                  0      0.00%     77.60% # Class of executed instruction
system.cpu3.op_class::SimdFloatCvt                  0      0.00%     77.60% # Class of executed instruction
system.cpu3.op_class::SimdFloatDiv                  0      0.00%     77.60% # Class of executed instruction
system.cpu3.op_class::SimdFloatMisc                 0      0.00%     77.60% # Class of executed instruction
system.cpu3.op_class::SimdFloatMult                 0      0.00%     77.60% # Class of executed instruction
system.cpu3.op_class::SimdFloatMultAcc              0      0.00%     77.60% # Class of executed instruction
system.cpu3.op_class::SimdFloatSqrt                 0      0.00%     77.60% # Class of executed instruction
system.cpu3.op_class::MemRead                 5637587     16.73%     94.33% # Class of executed instruction
system.cpu3.op_class::MemWrite                1911130      5.67%    100.00% # Class of executed instruction
system.cpu3.op_class::IprAccess                     0      0.00%    100.00% # Class of executed instruction
system.cpu3.op_class::InstPrefetch                  0      0.00%    100.00% # Class of executed instruction
system.cpu3.op_class::total                  33696615                       # Class of executed instruction
system.iobus.trans_dist::ReadReq                  111                       # Transaction distribution
system.iobus.trans_dist::ReadResp                 111                       # Transaction distribution
system.iobus.trans_dist::WriteReq                3738                       # Transaction distribution
system.iobus.trans_dist::WriteResp               3738                       # Transaction distribution
system.iobus.trans_dist::MessageReq                18                       # Transaction distribution
system.iobus.trans_dist::MessageResp               18                       # Transaction distribution
system.iobus.pkt_count_system.pc.south_bridge.io_apic.int_master::system.ruby.l1_cntrl0.sequencer.pio-slave-port            4                       # Packet count per connected master and slave (bytes)
system.iobus.pkt_count_system.pc.south_bridge.io_apic.int_master::system.ruby.l1_cntrl1.sequencer.pio-slave-port            2                       # Packet count per connected master and slave (bytes)
system.iobus.pkt_count_system.pc.south_bridge.io_apic.int_master::system.ruby.l1_cntrl2.sequencer.pio-slave-port            4                       # Packet count per connected master and slave (bytes)
system.iobus.pkt_count_system.pc.south_bridge.io_apic.int_master::system.ruby.l1_cntrl3.sequencer.pio-slave-port            4                       # Packet count per connected master and slave (bytes)
system.iobus.pkt_count_system.pc.south_bridge.io_apic.int_master::total           14                       # Packet count per connected master and slave (bytes)
system.iobus.pkt_count_system.ruby.l1_cntrl0.sequencer.mem-master-port::system.pc.south_bridge.ide.pio           12                       # Packet count per connected master and slave (bytes)
system.iobus.pkt_count_system.ruby.l1_cntrl0.sequencer.mem-master-port::system.pc.south_bridge.io_apic.pio            8                       # Packet count per connected master and slave (bytes)
system.iobus.pkt_count_system.ruby.l1_cntrl0.sequencer.mem-master-port::system.ruby.l1_cntrl0.sequencer.pio-slave-port         1836                       # Packet count per connected master and slave (bytes)
system.iobus.pkt_count_system.ruby.l1_cntrl0.sequencer.mem-master-port::system.ruby.l1_cntrl1.sequencer.pio-slave-port            6                       # Packet count per connected master and slave (bytes)
system.iobus.pkt_count_system.ruby.l1_cntrl0.sequencer.mem-master-port::system.ruby.l1_cntrl2.sequencer.pio-slave-port            2                       # Packet count per connected master and slave (bytes)
system.iobus.pkt_count_system.ruby.l1_cntrl0.sequencer.mem-master-port::system.ruby.l1_cntrl3.sequencer.pio-slave-port            4                       # Packet count per connected master and slave (bytes)
system.iobus.pkt_count_system.ruby.l1_cntrl0.sequencer.mem-master-port::total         1868                       # Packet count per connected master and slave (bytes)
system.iobus.pkt_count_system.ruby.l1_cntrl1.sequencer.mem-master-port::system.pc.south_bridge.ide.pio           80                       # Packet count per connected master and slave (bytes)
system.iobus.pkt_count_system.ruby.l1_cntrl1.sequencer.mem-master-port::system.pc.com_1.pio            2                       # Packet count per connected master and slave (bytes)
system.iobus.pkt_count_system.ruby.l1_cntrl1.sequencer.mem-master-port::system.ruby.l1_cntrl1.sequencer.pio-slave-port         1826                       # Packet count per connected master and slave (bytes)
system.iobus.pkt_count_system.ruby.l1_cntrl1.sequencer.mem-master-port::system.ruby.l1_cntrl2.sequencer.pio-slave-port            2                       # Packet count per connected master and slave (bytes)
system.iobus.pkt_count_system.ruby.l1_cntrl1.sequencer.mem-master-port::total         1910                       # Packet count per connected master and slave (bytes)
system.iobus.pkt_count_system.ruby.l1_cntrl2.sequencer.mem-master-port::system.pc.south_bridge.ide.pio           46                       # Packet count per connected master and slave (bytes)
system.iobus.pkt_count_system.ruby.l1_cntrl2.sequencer.mem-master-port::system.pc.south_bridge.io_apic.pio            6                       # Packet count per connected master and slave (bytes)
system.iobus.pkt_count_system.ruby.l1_cntrl2.sequencer.mem-master-port::system.pc.com_1.pio          174                       # Packet count per connected master and slave (bytes)
system.iobus.pkt_count_system.ruby.l1_cntrl2.sequencer.mem-master-port::system.ruby.l1_cntrl1.sequencer.pio-slave-port            2                       # Packet count per connected master and slave (bytes)
system.iobus.pkt_count_system.ruby.l1_cntrl2.sequencer.mem-master-port::system.ruby.l1_cntrl2.sequencer.pio-slave-port         1826                       # Packet count per connected master and slave (bytes)
system.iobus.pkt_count_system.ruby.l1_cntrl2.sequencer.mem-master-port::system.ruby.l1_cntrl3.sequencer.pio-slave-port            2                       # Packet count per connected master and slave (bytes)
system.iobus.pkt_count_system.ruby.l1_cntrl2.sequencer.mem-master-port::total         2056                       # Packet count per connected master and slave (bytes)
system.iobus.pkt_count_system.ruby.l1_cntrl3.sequencer.mem-master-port::system.pc.south_bridge.ide.pio           46                       # Packet count per connected master and slave (bytes)
system.iobus.pkt_count_system.ruby.l1_cntrl3.sequencer.mem-master-port::system.pc.south_bridge.io_apic.pio            8                       # Packet count per connected master and slave (bytes)
system.iobus.pkt_count_system.ruby.l1_cntrl3.sequencer.mem-master-port::system.ruby.l1_cntrl0.sequencer.pio-slave-port            2                       # Packet count per connected master and slave (bytes)
system.iobus.pkt_count_system.ruby.l1_cntrl3.sequencer.mem-master-port::system.ruby.l1_cntrl1.sequencer.pio-slave-port            2                       # Packet count per connected master and slave (bytes)
system.iobus.pkt_count_system.ruby.l1_cntrl3.sequencer.mem-master-port::system.ruby.l1_cntrl3.sequencer.pio-slave-port         1828                       # Packet count per connected master and slave (bytes)
system.iobus.pkt_count_system.ruby.l1_cntrl3.sequencer.mem-master-port::total         1886                       # Packet count per connected master and slave (bytes)
system.iobus.pkt_count::total                    7734                       # Packet count per connected master and slave (bytes)
system.iobus.pkt_size_system.pc.south_bridge.io_apic.int_master::system.ruby.l1_cntrl0.sequencer.pio-slave-port            8                       # Cumulative packet size per connected master and slave (bytes)
system.iobus.pkt_size_system.pc.south_bridge.io_apic.int_master::system.ruby.l1_cntrl1.sequencer.pio-slave-port            4                       # Cumulative packet size per connected master and slave (bytes)
system.iobus.pkt_size_system.pc.south_bridge.io_apic.int_master::system.ruby.l1_cntrl2.sequencer.pio-slave-port            8                       # Cumulative packet size per connected master and slave (bytes)
system.iobus.pkt_size_system.pc.south_bridge.io_apic.int_master::system.ruby.l1_cntrl3.sequencer.pio-slave-port            8                       # Cumulative packet size per connected master and slave (bytes)
system.iobus.pkt_size_system.pc.south_bridge.io_apic.int_master::total           28                       # Cumulative packet size per connected master and slave (bytes)
system.iobus.pkt_size_system.ruby.l1_cntrl0.sequencer.mem-master-port::system.pc.south_bridge.ide.pio            6                       # Cumulative packet size per connected master and slave (bytes)
system.iobus.pkt_size_system.ruby.l1_cntrl0.sequencer.mem-master-port::system.pc.south_bridge.io_apic.pio           16                       # Cumulative packet size per connected master and slave (bytes)
system.iobus.pkt_size_system.ruby.l1_cntrl0.sequencer.mem-master-port::system.ruby.l1_cntrl0.sequencer.pio-slave-port         3672                       # Cumulative packet size per connected master and slave (bytes)
system.iobus.pkt_size_system.ruby.l1_cntrl0.sequencer.mem-master-port::system.ruby.l1_cntrl1.sequencer.pio-slave-port           12                       # Cumulative packet size per connected master and slave (bytes)
system.iobus.pkt_size_system.ruby.l1_cntrl0.sequencer.mem-master-port::system.ruby.l1_cntrl2.sequencer.pio-slave-port            4                       # Cumulative packet size per connected master and slave (bytes)
system.iobus.pkt_size_system.ruby.l1_cntrl0.sequencer.mem-master-port::system.ruby.l1_cntrl3.sequencer.pio-slave-port            8                       # Cumulative packet size per connected master and slave (bytes)
system.iobus.pkt_size_system.ruby.l1_cntrl0.sequencer.mem-master-port::total         3718                       # Cumulative packet size per connected master and slave (bytes)
system.iobus.pkt_size_system.ruby.l1_cntrl1.sequencer.mem-master-port::system.pc.south_bridge.ide.pio           46                       # Cumulative packet size per connected master and slave (bytes)
system.iobus.pkt_size_system.ruby.l1_cntrl1.sequencer.mem-master-port::system.pc.com_1.pio            1                       # Cumulative packet size per connected master and slave (bytes)
system.iobus.pkt_size_system.ruby.l1_cntrl1.sequencer.mem-master-port::system.ruby.l1_cntrl1.sequencer.pio-slave-port         3652                       # Cumulative packet size per connected master and slave (bytes)
system.iobus.pkt_size_system.ruby.l1_cntrl1.sequencer.mem-master-port::system.ruby.l1_cntrl2.sequencer.pio-slave-port            4                       # Cumulative packet size per connected master and slave (bytes)
system.iobus.pkt_size_system.ruby.l1_cntrl1.sequencer.mem-master-port::total         3703                       # Cumulative packet size per connected master and slave (bytes)
system.iobus.pkt_size_system.ruby.l1_cntrl2.sequencer.mem-master-port::system.pc.south_bridge.ide.pio           26                       # Cumulative packet size per connected master and slave (bytes)
system.iobus.pkt_size_system.ruby.l1_cntrl2.sequencer.mem-master-port::system.pc.south_bridge.io_apic.pio           12                       # Cumulative packet size per connected master and slave (bytes)
system.iobus.pkt_size_system.ruby.l1_cntrl2.sequencer.mem-master-port::system.pc.com_1.pio           87                       # Cumulative packet size per connected master and slave (bytes)
system.iobus.pkt_size_system.ruby.l1_cntrl2.sequencer.mem-master-port::system.ruby.l1_cntrl1.sequencer.pio-slave-port            4                       # Cumulative packet size per connected master and slave (bytes)
system.iobus.pkt_size_system.ruby.l1_cntrl2.sequencer.mem-master-port::system.ruby.l1_cntrl2.sequencer.pio-slave-port         3652                       # Cumulative packet size per connected master and slave (bytes)
system.iobus.pkt_size_system.ruby.l1_cntrl2.sequencer.mem-master-port::system.ruby.l1_cntrl3.sequencer.pio-slave-port            4                       # Cumulative packet size per connected master and slave (bytes)
system.iobus.pkt_size_system.ruby.l1_cntrl2.sequencer.mem-master-port::total         3785                       # Cumulative packet size per connected master and slave (bytes)
system.iobus.pkt_size_system.ruby.l1_cntrl3.sequencer.mem-master-port::system.pc.south_bridge.ide.pio           26                       # Cumulative packet size per connected master and slave (bytes)
system.iobus.pkt_size_system.ruby.l1_cntrl3.sequencer.mem-master-port::system.pc.south_bridge.io_apic.pio           16                       # Cumulative packet size per connected master and slave (bytes)
system.iobus.pkt_size_system.ruby.l1_cntrl3.sequencer.mem-master-port::system.ruby.l1_cntrl0.sequencer.pio-slave-port            4                       # Cumulative packet size per connected master and slave (bytes)
system.iobus.pkt_size_system.ruby.l1_cntrl3.sequencer.mem-master-port::system.ruby.l1_cntrl1.sequencer.pio-slave-port            4                       # Cumulative packet size per connected master and slave (bytes)
system.iobus.pkt_size_system.ruby.l1_cntrl3.sequencer.mem-master-port::system.ruby.l1_cntrl3.sequencer.pio-slave-port         3656                       # Cumulative packet size per connected master and slave (bytes)
system.iobus.pkt_size_system.ruby.l1_cntrl3.sequencer.mem-master-port::total         3706                       # Cumulative packet size per connected master and slave (bytes)
system.iobus.pkt_size::total                    14940                       # Cumulative packet size per connected master and slave (bytes)
system.iobus.reqLayer2.occupancy               162000                       # Layer occupancy (ticks)
system.iobus.reqLayer2.utilization                0.0                       # Layer utilization (%)
system.iobus.reqLayer8.occupancy                18997                       # Layer occupancy (ticks)
system.iobus.reqLayer8.utilization                0.0                       # Layer utilization (%)
system.iobus.reqLayer12.occupancy              111500                       # Layer occupancy (ticks)
system.iobus.reqLayer12.utilization               0.0                       # Layer utilization (%)
system.iobus.reqLayer17.occupancy             2078480                       # Layer occupancy (ticks)
system.iobus.reqLayer17.utilization               0.0                       # Layer utilization (%)
system.iobus.reqLayer18.occupancy             2293998                       # Layer occupancy (ticks)
system.iobus.reqLayer18.utilization               0.0                       # Layer utilization (%)
system.iobus.reqLayer19.occupancy             2286497                       # Layer occupancy (ticks)
system.iobus.reqLayer19.utilization               0.0                       # Layer utilization (%)
system.iobus.reqLayer20.occupancy             2291993                       # Layer occupancy (ticks)
system.iobus.reqLayer20.utilization               0.0                       # Layer utilization (%)
system.iobus.respLayer0.occupancy               11496                       # Layer occupancy (ticks)
system.iobus.respLayer0.utilization               0.0                       # Layer utilization (%)
system.iobus.respLayer2.occupancy             1402500                       # Layer occupancy (ticks)
system.iobus.respLayer2.utilization               0.0                       # Layer utilization (%)
system.iobus.respLayer4.occupancy             1424500                       # Layer occupancy (ticks)
system.iobus.respLayer4.utilization               0.0                       # Layer utilization (%)
system.iobus.respLayer6.occupancy             1560500                       # Layer occupancy (ticks)
system.iobus.respLayer6.utilization               0.0                       # Layer utilization (%)
system.iobus.respLayer8.occupancy             1412000                       # Layer occupancy (ticks)
system.iobus.respLayer8.utilization               0.0                       # Layer utilization (%)
system.pc.south_bridge.ide.disks.dma_read_full_pages            1                       # Number of full page size DMA reads (not PRD).
system.pc.south_bridge.ide.disks.dma_read_bytes         4096                       # Number of bytes transfered via DMA reads (not PRD).
system.pc.south_bridge.ide.disks.dma_read_txs            1                       # Number of DMA read transactions (not PRD).
system.pc.south_bridge.ide.disks.dma_write_full_pages           45                       # Number of full page size DMA writes.
system.pc.south_bridge.ide.disks.dma_write_bytes       184320                       # Number of bytes transfered via DMA writes.
system.pc.south_bridge.ide.disks.dma_write_txs           45                       # Number of DMA write transactions.
system.ruby.clk_domain.clock                      500                       # Clock period in ticks
system.ruby.outstanding_req_hist_seqr::bucket_size            1                      
system.ruby.outstanding_req_hist_seqr::max_bucket            9                      
system.ruby.outstanding_req_hist_seqr::samples   3589112795                      
system.ruby.outstanding_req_hist_seqr::mean     1.000000                      
system.ruby.outstanding_req_hist_seqr::gmean     1.000000                      
system.ruby.outstanding_req_hist_seqr::stdev     0.000311                      
system.ruby.outstanding_req_hist_seqr    |           0      0.00%      0.00% |  3589112448    100.00%    100.00% |         347      0.00%    100.00% |           0      0.00%    100.00% |           0      0.00%    100.00% |           0      0.00%    100.00% |           0      0.00%    100.00% |           0      0.00%    100.00% |           0      0.00%    100.00% |           0      0.00%    100.00%
system.ruby.outstanding_req_hist_seqr::total   3589112795                      
system.ruby.latency_hist_seqr::bucket_size          128                      
system.ruby.latency_hist_seqr::max_bucket         1279                      
system.ruby.latency_hist_seqr::samples     3589112795                      
system.ruby.latency_hist_seqr::mean          1.022359                      
system.ruby.latency_hist_seqr::gmean         1.003711                      
system.ruby.latency_hist_seqr::stdev         0.733940                      
system.ruby.latency_hist_seqr            |  3589105822    100.00%    100.00% |        6426      0.00%    100.00% |         126      0.00%    100.00% |          60      0.00%    100.00% |         271      0.00%    100.00% |          89      0.00%    100.00% |           1      0.00%    100.00% |           0      0.00%    100.00% |           0      0.00%    100.00% |           0      0.00%    100.00%
system.ruby.latency_hist_seqr::total       3589112795                      
system.ruby.hit_latency_hist_seqr::bucket_size            1                      
system.ruby.hit_latency_hist_seqr::max_bucket            9                      
system.ruby.hit_latency_hist_seqr::samples   3584489435                      
system.ruby.hit_latency_hist_seqr::mean             1                      
system.ruby.hit_latency_hist_seqr::gmean            1                      
system.ruby.hit_latency_hist_seqr        |           0      0.00%      0.00% |  3584489435    100.00%    100.00% |           0      0.00%    100.00% |           0      0.00%    100.00% |           0      0.00%    100.00% |           0      0.00%    100.00% |           0      0.00%    100.00% |           0      0.00%    100.00% |           0      0.00%    100.00% |           0      0.00%    100.00%
system.ruby.hit_latency_hist_seqr::total   3584489435                      
system.ruby.miss_latency_hist_seqr::bucket_size          128                      
system.ruby.miss_latency_hist_seqr::max_bucket         1279                      
system.ruby.miss_latency_hist_seqr::samples      4623360                      
[...]
system.ruby.L1Cache_Controller.O.L1_Replacement |         170      7.98%      7.98% |         800     37.56%     45.54% |         718     33.71%     79.25% |         442     20.75%    100.00%
system.ruby.L1Cache_Controller.O.L1_Replacement::total         2130                      
system.ruby.L1Cache_Controller.O.Fwd_GETX |         352      1.95%      1.95% |        4797     26.62%     28.57% |        3694     20.50%     49.07% |        9177     50.93%    100.00%
system.ruby.L1Cache_Controller.O.Fwd_GETX::total        18020                      
system.ruby.L1Cache_Controller.O.Fwd_GETS |         368      1.07%      1.07% |        4163     12.13%     13.20% |        8519     24.83%     38.03% |       21264     61.97%    100.00%
system.ruby.L1Cache_Controller.O.Fwd_GETS::total        34314                      
system.ruby.L1Cache_Controller.M.Load    |    13481069     96.35%     96.35% |       23446      0.17%     96.52% |       91200      0.65%     97.17% |      395971      2.83%    100.00%
system.ruby.L1Cache_Controller.M.Load::total     13991686                      
system.ruby.L1Cache_Controller.M.Store   |      175059     91.10%     91.10% |        1485      0.77%     91.88% |        8657      4.51%     96.38% |        6955      3.62%    100.00%
system.ruby.L1Cache_Controller.M.Store::total       192156                      
system.ruby.L1Cache_Controller.M.L1_Replacement |      200823     89.18%     89.18% |        3266      1.45%     90.63% |       10517      4.67%     95.30% |       10580      4.70%    100.00%
system.ruby.L1Cache_Controller.M.L1_Replacement::total       225186                      
system.ruby.L1Cache_Controller.M.Fwd_GETX |         153     12.38%     12.38% |          99      8.01%     20.39% |         259     20.95%     41.34% |         725     58.66%    100.00%
system.ruby.L1Cache_Controller.M.Fwd_GETX::total         1236                      
system.ruby.L1Cache_Controller.M.Fwd_GETS |         518      2.56%      2.56% |        5665     27.95%     30.51% |        4319     21.31%     51.82% |        9765     48.18%    100.00%
system.ruby.L1Cache_Controller.M.Fwd_GETS::total        20267                      
system.ruby.L1Cache_Controller.M_W.Load  |       87389     64.25%     64.25% |        9338      6.87%     71.11% |       18618     13.69%     84.80% |       20672     15.20%    100.00%
system.ruby.L1Cache_Controller.M_W.Load::total       136017                      
system.ruby.L1Cache_Controller.M_W.Store |       36729     86.92%     86.92% |         883      2.09%     89.01% |        2523      5.97%     94.98% |        2122      5.02%    100.00%
system.ruby.L1Cache_Controller.M_W.Store::total        42257                      
system.ruby.L1Cache_Controller.M_W.L1_Replacement |           0      0.00%      0.00% |           0      0.00%      0.00% |          51    100.00%    100.00% |           0      0.00%    100.00%
system.ruby.L1Cache_Controller.M_W.L1_Replacement::total           51                      
system.ruby.L1Cache_Controller.M_W.Fwd_GETX |           6      7.50%      7.50% |          65     81.25%     88.75% |           9     11.25%    100.00% |           0      0.00%    100.00%
system.ruby.L1Cache_Controller.M_W.Fwd_GETX::total           80                      
system.ruby.L1Cache_Controller.M_W.Fwd_GETS |           6      2.26%      2.26% |         155     58.49%     60.75% |          66     24.91%     85.66% |          38     14.34%    100.00%
system.ruby.L1Cache_Controller.M_W.Fwd_GETS::total          265                      
system.ruby.L1Cache_Controller.M_W.Use_Timeout |      376729     85.82%     85.82% |       10620      2.42%     88.24% |       23692      5.40%     93.64% |       27922      6.36%    100.00%
system.ruby.L1Cache_Controller.M_W.Use_Timeout::total       438963                      
system.ruby.L1Cache_Controller.MM.Load   |   344090477     98.47%     98.47% |      614162      0.18%     98.65% |     1207874      0.35%     99.00% |     3509867      1.00%    100.00%
system.ruby.L1Cache_Controller.MM.Load::total    349422380                      
system.ruby.L1Cache_Controller.MM.Store  |   169944318     97.58%     97.58% |      670759      0.39%     97.97% |     1230890      0.71%     98.67% |     2309161      1.33%    100.00%
system.ruby.L1Cache_Controller.MM.Store::total    174155128                      
system.ruby.L1Cache_Controller.MM.L1_Replacement |     1636658     93.01%     93.01% |       12796      0.73%     93.74% |       51222      2.91%     96.65% |       58979      3.35%    100.00%
system.ruby.L1Cache_Controller.MM.L1_Replacement::total      1759655                      
system.ruby.L1Cache_Controller.MM.Fwd_GETX |        1686     19.02%     19.02% |        2291     25.85%     44.87% |        2674     30.17%     75.03% |        2213     24.97%    100.00%
system.ruby.L1Cache_Controller.MM.Fwd_GETX::total         8864                      
system.ruby.L1Cache_Controller.MM.Fwd_GETS |        5974     33.16%     33.16% |        3445     19.12%     52.28% |        4363     24.22%     76.49% |        4235     23.51%    100.00%
system.ruby.L1Cache_Controller.MM.Fwd_GETS::total        18017                      
system.ruby.L1Cache_Controller.MM.Fwd_DMA |           0      0.00%      0.00% |          17     51.52%     51.52% |           4     12.12%     63.64% |          12     36.36%    100.00%
system.ruby.L1Cache_Controller.MM.Fwd_DMA::total           33                      
system.ruby.L1Cache_Controller.MM_W.Load |       50319     85.50%     85.50% |        1073      1.82%     87.32% |        5573      9.47%     96.79% |        1887      3.21%    100.00%
system.ruby.L1Cache_Controller.MM_W.Load::total        58852                      
system.ruby.L1Cache_Controller.MM_W.Store |      791751     77.31%     77.31% |       30547      2.98%     80.29% |      116848     11.41%     91.70% |       85037      8.30%    100.00%
system.ruby.L1Cache_Controller.MM_W.Store::total      1024183                      
system.ruby.L1Cache_Controller.MM_W.L1_Replacement |           0      0.00%      0.00% |           0      0.00%      0.00% |           1    100.00%    100.00% |           0      0.00%    100.00%
system.ruby.L1Cache_Controller.MM_W.L1_Replacement::total            1                      
system.ruby.L1Cache_Controller.MM_W.Fwd_GETX |           3     16.67%     16.67% |           5     27.78%     44.44% |           4     22.22%     66.67% |           6     33.33%    100.00%
system.ruby.L1Cache_Controller.MM_W.Fwd_GETX::total           18                      
system.ruby.L1Cache_Controller.MM_W.Fwd_GETS |         832     29.58%     29.58% |         940     33.42%     62.99% |          96      3.41%     66.41% |         945     33.59%    100.00%
system.ruby.L1Cache_Controller.MM_W.Fwd_GETS::total         2813                      
system.ruby.L1Cache_Controller.MM_W.Use_Timeout |     1469972     92.18%     92.18% |       16325      1.02%     93.21% |       50114      3.14%     96.35% |       58223      3.65%    100.00%
system.ruby.L1Cache_Controller.MM_W.Use_Timeout::total      1594634                      
system.ruby.L1Cache_Controller.IM.Ack    |        8397     31.36%     31.36% |        5424     20.26%     51.61% |        8658     32.33%     83.95% |        4299     16.05%    100.00%
system.ruby.L1Cache_Controller.IM.Ack::total        26778                      
system.ruby.L1Cache_Controller.IM.Exclusive_Data |     1428088     93.26%     93.26% |       12951      0.85%     94.11% |       37402      2.44%     96.55% |       52788      3.45%    100.00%
system.ruby.L1Cache_Controller.IM.Exclusive_Data::total      1531229                      
system.ruby.L1Cache_Controller.SM.Inv    |           0      0.00%      0.00% |           0      0.00%      0.00% |           1    100.00%    100.00% |           0      0.00%    100.00%
system.ruby.L1Cache_Controller.SM.Inv::total            1                      
system.ruby.L1Cache_Controller.SM.Ack    |       10266     67.03%     67.03% |        2482     16.21%     83.24% |        1443      9.42%     92.66% |        1124      7.34%    100.00%
system.ruby.L1Cache_Controller.SM.Ack::total        15315                      
system.ruby.L1Cache_Controller.SM.Exclusive_Data |        5147     24.68%     24.68% |        2438     11.69%     36.37% |       10065     48.26%     84.63% |        3206     15.37%    100.00%
system.ruby.L1Cache_Controller.SM.Exclusive_Data::total        20856                      
system.ruby.L1Cache_Controller.OM.Own_GETX |           8      2.74%      2.74% |          53     18.15%     20.89% |         124     42.47%     63.36% |         107     36.64%    100.00%
system.ruby.L1Cache_Controller.OM.Own_GETX::total          292                      
system.ruby.L1Cache_Controller.OM.Ack    |        2077     49.32%     49.32% |         181      4.30%     53.62% |        1241     29.47%     83.09% |         712     16.91%    100.00%
system.ruby.L1Cache_Controller.OM.Ack::total         4211                      
system.ruby.L1Cache_Controller.OM.All_acks |     1433243     92.33%     92.33% |       15442      0.99%     93.32% |       47591      3.07%     96.39% |       56101      3.61%    100.00%
system.ruby.L1Cache_Controller.OM.All_acks::total      1552377                      
system.ruby.L1Cache_Controller.IS.Data   |     2529077     88.00%     88.00% |       72063      2.51%     90.51% |      156275      5.44%     95.95% |      116385      4.05%    100.00%
system.ruby.L1Cache_Controller.IS.Data::total      2873800                      
system.ruby.L1Cache_Controller.IS.Exclusive_Data |      413458     85.92%     85.92% |       11503      2.39%     88.31% |       26215      5.45%     93.76% |       30044      6.24%    100.00%
system.ruby.L1Cache_Controller.IS.Exclusive_Data::total       481220                      
system.ruby.L1Cache_Controller.SI.Load   |           0      0.00%      0.00% |           0      0.00%      0.00% |           0      0.00%      0.00% |           2    100.00%    100.00%
system.ruby.L1Cache_Controller.SI.Load::total            2                      
system.ruby.L1Cache_Controller.SI.Ifetch |           0      0.00%      0.00% |           0      0.00%      0.00% |           4    100.00%    100.00% |           0      0.00%    100.00%
system.ruby.L1Cache_Controller.SI.Ifetch::total            4                      
system.ruby.L1Cache_Controller.SI.Writeback_Ack |     2514800     89.91%     89.91% |       60310      2.16%     92.06% |      120544      4.31%     96.37% |      101454      3.63%    100.00%
system.ruby.L1Cache_Controller.SI.Writeback_Ack::total      2797108                      
system.ruby.L1Cache_Controller.SI.Writeback_Ack_Data |        7839     21.10%     21.10% |        3344      9.00%     30.11% |       17668     47.57%     77.68% |        8292     22.32%    100.00%
system.ruby.L1Cache_Controller.SI.Writeback_Ack_Data::total        37143                      
system.ruby.L1Cache_Controller.OI.Writeback_Ack_Data |         170      7.98%      7.98% |         800     37.56%     45.54% |         718     33.71%     79.25% |         442     20.75%    100.00%
system.ruby.L1Cache_Controller.OI.Writeback_Ack_Data::total         2130                      
system.ruby.L1Cache_Controller.MI.Load   |          15    100.00%    100.00% |           0      0.00%    100.00% |           0      0.00%    100.00% |           0      0.00%    100.00%
system.ruby.L1Cache_Controller.MI.Load::total           15                      
system.ruby.L1Cache_Controller.MI.Writeback_Ack_Data |     1837481     92.58%     92.58% |       16062      0.81%     93.38% |       61739      3.11%     96.50% |       69559      3.50%    100.00%
system.ruby.L1Cache_Controller.MI.Writeback_Ack_Data::total      1984841                      
system.ruby.L2Cache_Controller.L1_GETS        3356102      0.00%      0.00%
system.ruby.L2Cache_Controller.L1_GETX        1552396      0.00%      0.00%
system.ruby.L2Cache_Controller.L1_PUTO           2130      0.00%      0.00%
system.ruby.L2Cache_Controller.L1_PUTX        1984841      0.00%      0.00%
system.ruby.L2Cache_Controller.L1_PUTS_only      2203557      0.00%      0.00%
system.ruby.L2Cache_Controller.L1_PUTS         630700      0.00%      0.00%
system.ruby.L2Cache_Controller.Fwd_GETX            40      0.00%      0.00%
system.ruby.L2Cache_Controller.Fwd_DMA             35      0.00%      0.00%
system.ruby.L2Cache_Controller.Inv                120      0.00%      0.00%
system.ruby.L2Cache_Controller.All_Acks         66644      0.00%      0.00%
system.ruby.L2Cache_Controller.Data            113853      0.00%      0.00%
system.ruby.L2Cache_Controller.L1_WBCLEANDATA        37143      0.00%      0.00%
system.ruby.L2Cache_Controller.L1_WBDIRTYDATA      1986971      0.00%      0.00%
system.ruby.L2Cache_Controller.Writeback_Ack        37671      0.00%      0.00%
system.ruby.L2Cache_Controller.Unblock        5670908      0.00%      0.00%
system.ruby.L2Cache_Controller.Exclusive_Unblock      2033597      0.00%      0.00%
system.ruby.L2Cache_Controller.DmaAck              33      0.00%      0.00%
system.ruby.L2Cache_Controller.L2_Replacement        57801      0.00%      0.00%
system.ruby.L2Cache_Controller.NP.L1_GETS        47209      0.00%      0.00%
system.ruby.L2Cache_Controller.NP.L1_GETX        49424      0.00%      0.00%
system.ruby.L2Cache_Controller.NP.Inv              19      0.00%      0.00%
system.ruby.L2Cache_Controller.ILS.L1_GETS         5329      0.00%      0.00%
system.ruby.L2Cache_Controller.ILS.L1_GETX        10851      0.00%      0.00%
system.ruby.L2Cache_Controller.ILS.L1_PUTS_only        33756      0.00%      0.00%
system.ruby.L2Cache_Controller.ILS.L1_PUTS         3387      0.00%      0.00%
system.ruby.L2Cache_Controller.ILX.L1_GETS        38284      0.00%      0.00%
system.ruby.L2Cache_Controller.ILX.L1_GETX        10100      0.00%      0.00%
system.ruby.L2Cache_Controller.ILX.L1_PUTX      1984841      0.00%      0.00%
system.ruby.L2Cache_Controller.ILX.Fwd_DMA           33      0.00%      0.00%
system.ruby.L2Cache_Controller.ILOX.L1_GETS        15769      0.00%      0.00%
system.ruby.L2Cache_Controller.ILOX.L1_GETX         3685      0.00%      0.00%
system.ruby.L2Cache_Controller.ILOX.L1_PUTO         1349      0.00%      0.00%
system.ruby.L2Cache_Controller.ILOSX.L1_GETS        18545      0.00%      0.00%
system.ruby.L2Cache_Controller.ILOSX.L1_GETX        14627      0.00%      0.00%
system.ruby.L2Cache_Controller.ILOSX.L1_PUTO          781      0.00%      0.00%
system.ruby.L2Cache_Controller.ILOSX.L1_PUTS_only        20853      0.00%      0.00%
system.ruby.L2Cache_Controller.ILOSX.L1_PUTS         9417      0.00%      0.00%
system.ruby.L2Cache_Controller.S.L1_GETS      2149410      0.00%      0.00%
system.ruby.L2Cache_Controller.S.L1_GETX         3706      0.00%      0.00%
system.ruby.L2Cache_Controller.S.Inv              101      0.00%      0.00%
system.ruby.L2Cache_Controller.S.L2_Replacement        19393      0.00%      0.00%
system.ruby.L2Cache_Controller.OLSX.L1_GETS        10647      0.00%      0.00%
system.ruby.L2Cache_Controller.OLSX.L1_GETX          244      0.00%      0.00%
system.ruby.L2Cache_Controller.OLSX.L1_PUTS_only          571      0.00%      0.00%
system.ruby.L2Cache_Controller.OLSX.L1_PUTS        10559      0.00%      0.00%
system.ruby.L2Cache_Controller.OLSX.L2_Replacement           11      0.00%      0.00%
system.ruby.L2Cache_Controller.SLS.L1_GETS       606624      0.00%      0.00%
system.ruby.L2Cache_Controller.SLS.L1_GETX         2663      0.00%      0.00%
system.ruby.L2Cache_Controller.SLS.L1_PUTS_only      2148376      0.00%      0.00%
system.ruby.L2Cache_Controller.SLS.L1_PUTS       607332      0.00%      0.00%
system.ruby.L2Cache_Controller.SLS.L2_Replacement          737      0.00%      0.00%
system.ruby.L2Cache_Controller.M.L1_GETS       463203      0.00%      0.00%
system.ruby.L2Cache_Controller.M.L1_GETX      1457077      0.00%      0.00%
system.ruby.L2Cache_Controller.M.Fwd_GETX           40      0.00%      0.00%
system.ruby.L2Cache_Controller.M.Fwd_DMA            1      0.00%      0.00%
system.ruby.L2Cache_Controller.M.L2_Replacement        37660      0.00%      0.00%
system.ruby.L2Cache_Controller.ILOXW.L1_WBDIRTYDATA         1349      0.00%      0.00%
system.ruby.L2Cache_Controller.ILOXW.Unblock        20853      0.00%      0.00%
system.ruby.L2Cache_Controller.ILOSXW.L1_WBDIRTYDATA          781      0.00%      0.00%
system.ruby.L2Cache_Controller.ILOSXW.Unblock         9417      0.00%      0.00%
system.ruby.L2Cache_Controller.SLSW.L1_GETS            2      0.00%      0.00%
system.ruby.L2Cache_Controller.SLSW.L1_PUTS            2      0.00%      0.00%
system.ruby.L2Cache_Controller.SLSW.Unblock       607332      0.00%      0.00%
system.ruby.L2Cache_Controller.ILSW.L1_WBCLEANDATA         3387      0.00%      0.00%
system.ruby.L2Cache_Controller.IW.L1_WBCLEANDATA        33756      0.00%      0.00%
system.ruby.L2Cache_Controller.SW.Unblock      2148376      0.00%      0.00%
system.ruby.L2Cache_Controller.OXW.Unblock          571      0.00%      0.00%
system.ruby.L2Cache_Controller.OLSXW.Unblock        10559      0.00%      0.00%
system.ruby.L2Cache_Controller.ILXW.L1_GETS            2      0.00%      0.00%
system.ruby.L2Cache_Controller.ILXW.Fwd_DMA            1      0.00%      0.00%
system.ruby.L2Cache_Controller.ILXW.L1_WBDIRTYDATA      1984841      0.00%      0.00%
system.ruby.L2Cache_Controller.IFLS.L1_GETS            6      0.00%      0.00%
system.ruby.L2Cache_Controller.IFLS.Unblock         5329      0.00%      0.00%
system.ruby.L2Cache_Controller.IFLOX.Unblock        15769      0.00%      0.00%
system.ruby.L2Cache_Controller.IFLOX.Exclusive_Unblock          244      0.00%      0.00%
system.ruby.L2Cache_Controller.IFLOXX.L1_GETS          116      0.00%      0.00%
system.ruby.L2Cache_Controller.IFLOXX.L1_GETX           16      0.00%      0.00%
system.ruby.L2Cache_Controller.IFLOXX.Unblock        20267      0.00%      0.00%
system.ruby.L2Cache_Controller.IFLOXX.Exclusive_Unblock        31802      0.00%      0.00%
system.ruby.L2Cache_Controller.IFLOSX.Unblock        18545      0.00%      0.00%
system.ruby.L2Cache_Controller.IFLXO.L1_GETS           71      0.00%      0.00%
system.ruby.L2Cache_Controller.IFLXO.L1_GETX            3      0.00%      0.00%
system.ruby.L2Cache_Controller.IFLXO.Exclusive_Unblock        14627      0.00%      0.00%
system.ruby.L2Cache_Controller.IGS.L1_GETS          877      0.00%      0.00%
system.ruby.L2Cache_Controller.IGS.Data         47209      0.00%      0.00%
system.ruby.L2Cache_Controller.IGS.Unblock        47209      0.00%      0.00%
system.ruby.L2Cache_Controller.IGM.Data         53130      0.00%      0.00%
system.ruby.L2Cache_Controller.IGMLS.Data        13514      0.00%      0.00%
system.ruby.L2Cache_Controller.IGMO.All_Acks        66644      0.00%      0.00%
system.ruby.L2Cache_Controller.IGMO.Exclusive_Unblock        66644      0.00%      0.00%
system.ruby.L2Cache_Controller.MM.Exclusive_Unblock      1457077      0.00%      0.00%
system.ruby.L2Cache_Controller.SS.Unblock      2149410      0.00%      0.00%
system.ruby.L2Cache_Controller.OO.L1_GETS            2      0.00%      0.00%
system.ruby.L2Cache_Controller.OO.Exclusive_Unblock       463203      0.00%      0.00%
system.ruby.L2Cache_Controller.OLSXS.Unblock        10647      0.00%      0.00%
system.ruby.L2Cache_Controller.SLSS.L1_GETS            6      0.00%      0.00%
system.ruby.L2Cache_Controller.SLSS.L1_PUTS_only            1      0.00%      0.00%
system.ruby.L2Cache_Controller.SLSS.L1_PUTS            3      0.00%      0.00%
system.ruby.L2Cache_Controller.SLSS.Unblock       606624      0.00%      0.00%
system.ruby.L2Cache_Controller.MI.Writeback_Ack        37660      0.00%      0.00%
system.ruby.L2Cache_Controller.OLSI.Writeback_Ack           11      0.00%      0.00%
system.ruby.L2Cache_Controller.ILXD.DmaAck           33      0.00%      0.00%

---------- End Simulation Statistics   ----------
