
---------- Begin Simulation Statistics ----------
sim_seconds                                  1.447770                       # Number of seconds simulated
sim_ticks                                1447769949500                       # Number of ticks simulated
final_tick                               53852360617001                       # Number of ticks from beginning of simulation (restored from checkpoints and never reset)
sim_freq                                 1000000000000                       # Frequency of simulated ticks
host_inst_rate                                 144346                       # Simulator instruction rate (inst/s)
host_op_rate                                   193252                       # Simulator op (including micro ops) rate (op/s)
host_tick_rate                              385526845                       # Simulator tick rate (ticks/s)
host_mem_usage                                2286304                       # Number of bytes of host memory used
host_seconds                                  3755.30                       # Real time elapsed on the host
sim_insts                                   542063796                       # Number of instructions simulated
sim_ops                                     725718796                       # Number of ops (including micro ops) simulated
system.voltage_domain.voltage                       1                       # Voltage in Volts
system.clk_domain.clock                          1000                       # Clock period in ticks
system.mem_ctrls.bytes_read::ruby.dir_cntrl0    456784448                       # Number of bytes read from this memory
system.mem_ctrls.bytes_read::total          456784448                       # Number of bytes read from this memory
system.mem_ctrls.bytes_written::ruby.dir_cntrl0    456786112                       # Number of bytes written to this memory
system.mem_ctrls.bytes_written::total       456786112                       # Number of bytes written to this memory
system.mem_ctrls.num_reads::ruby.dir_cntrl0      7137257                       # Number of read requests responded to by this memory
system.mem_ctrls.num_reads::total             7137257                       # Number of read requests responded to by this memory
system.mem_ctrls.num_writes::ruby.dir_cntrl0      7137283                       # Number of write requests responded to by this memory
system.mem_ctrls.num_writes::total            7137283                       # Number of write requests responded to by this memory
system.mem_ctrls.bw_read::ruby.dir_cntrl0    315508999                       # Total read bandwidth from this memory (bytes/s)
system.mem_ctrls.bw_read::total             315508999                       # Total read bandwidth from this memory (bytes/s)
system.mem_ctrls.bw_write::ruby.dir_cntrl0    315510149                       # Write bandwidth from this memory (bytes/s)
system.mem_ctrls.bw_write::total            315510149                       # Write bandwidth from this memory (bytes/s)
system.mem_ctrls.bw_total::ruby.dir_cntrl0    631019148                       # Total bandwidth to/from this memory (bytes/s)
system.mem_ctrls.bw_total::total            631019148                       # Total bandwidth to/from this memory (bytes/s)
system.mem_ctrls.readReqs                     7137257                       # Number of read requests accepted
system.mem_ctrls.writeReqs                    7137283                       # Number of write requests accepted
system.mem_ctrls.readBursts                   7137257                       # Number of DRAM read bursts, including those serviced by the write queue
system.mem_ctrls.writeBursts                  7137283                       # Number of DRAM write bursts, including those merged in the write queue
system.mem_ctrls.bytesReadDRAM              451366592                       # Total number of bytes read from DRAM
system.mem_ctrls.bytesReadWrQ                 5417856                       # Total number of bytes read from write queue
system.mem_ctrls.bytesWritten               456784640                       # Total number of bytes written to DRAM
system.mem_ctrls.bytesReadSys               456784448                       # Total read bytes from the system interface side
system.mem_ctrls.bytesWrittenSys            456786112                       # Total written bytes from the system interface side
system.mem_ctrls.servicedByWrQ                  84654                       # Number of DRAM read bursts serviced by the write queue
system.mem_ctrls.mergedWrBursts                    24                       # Number of DRAM write bursts merged with an existing one
system.mem_ctrls.neitherReadNorWriteReqs            0                       # Number of requests that are neither read nor write
system.mem_ctrls.perBankRdBursts::0            334646                       # Per bank write bursts
system.mem_ctrls.perBankRdBursts::1            498363                       # Per bank write bursts
system.mem_ctrls.perBankRdBursts::2            389489                       # Per bank write bursts
system.mem_ctrls.perBankRdBursts::3            522164                       # Per bank write bursts
system.mem_ctrls.perBankRdBursts::4            398533                       # Per bank write bursts
system.mem_ctrls.perBankRdBursts::5            465748                       # Per bank write bursts
system.mem_ctrls.perBankRdBursts::6            400351                       # Per bank write bursts
system.mem_ctrls.perBankRdBursts::7            615452                       # Per bank write bursts
system.mem_ctrls.perBankRdBursts::8            584704                       # Per bank write bursts
system.mem_ctrls.perBankRdBursts::9            396726                       # Per bank write bursts
system.mem_ctrls.perBankRdBursts::10           625723                       # Per bank write bursts
system.mem_ctrls.perBankRdBursts::11           331347                       # Per bank write bursts
system.mem_ctrls.perBankRdBursts::12           379904                       # Per bank write bursts
system.mem_ctrls.perBankRdBursts::13           318338                       # Per bank write bursts
system.mem_ctrls.perBankRdBursts::14           463335                       # Per bank write bursts
system.mem_ctrls.perBankRdBursts::15           327780                       # Per bank write bursts
system.mem_ctrls.perBankWrBursts::0            338484                       # Per bank write bursts
system.mem_ctrls.perBankWrBursts::1            502732                       # Per bank write bursts
system.mem_ctrls.perBankWrBursts::2            393304                       # Per bank write bursts
system.mem_ctrls.perBankWrBursts::3            526864                       # Per bank write bursts
system.mem_ctrls.perBankWrBursts::4            402720                       # Per bank write bursts
system.mem_ctrls.perBankWrBursts::5            469655                       # Per bank write bursts
system.mem_ctrls.perBankWrBursts::6            408760                       # Per bank write bursts
system.mem_ctrls.perBankWrBursts::7            625522                       # Per bank write bursts
system.mem_ctrls.perBankWrBursts::8            589316                       # Per bank write bursts
system.mem_ctrls.perBankWrBursts::9            401687                       # Per bank write bursts
system.mem_ctrls.perBankWrBursts::10           635905                       # Per bank write bursts
system.mem_ctrls.perBankWrBursts::11           337345                       # Per bank write bursts
system.mem_ctrls.perBankWrBursts::12           383200                       # Per bank write bursts
system.mem_ctrls.perBankWrBursts::13           321056                       # Per bank write bursts
system.mem_ctrls.perBankWrBursts::14           468563                       # Per bank write bursts
system.mem_ctrls.perBankWrBursts::15           332147                       # Per bank write bursts
system.mem_ctrls.numRdRetry                         0                       # Number of times read queue was full causing retry
system.mem_ctrls.numWrRetry                         0                       # Number of times write queue was full causing retry
system.mem_ctrls.totGap                  1447769953500                       # Total gap between requests
system.mem_ctrls.readPktSize::0                     0                       # Read request sizes (log2)
system.mem_ctrls.readPktSize::1                     0                       # Read request sizes (log2)
system.mem_ctrls.readPktSize::2                     0                       # Read request sizes (log2)
system.mem_ctrls.readPktSize::3                     0                       # Read request sizes (log2)
system.mem_ctrls.readPktSize::4                     0                       # Read request sizes (log2)
system.mem_ctrls.readPktSize::5                     0                       # Read request sizes (log2)
system.mem_ctrls.readPktSize::6               7137257                       # Read request sizes (log2)
system.mem_ctrls.writePktSize::0                    0                       # Write request sizes (log2)
system.mem_ctrls.writePktSize::1                    0                       # Write request sizes (log2)
system.mem_ctrls.writePktSize::2                    0                       # Write request sizes (log2)
system.mem_ctrls.writePktSize::3                    0                       # Write request sizes (log2)
system.mem_ctrls.writePktSize::4                    0                       # Write request sizes (log2)
system.mem_ctrls.writePktSize::5                    0                       # Write request sizes (log2)
system.mem_ctrls.writePktSize::6              7137283                       # Write request sizes (log2)
system.mem_ctrls.rdQLenPdf::0                 7033374                       # What read queue length does an incoming req see
system.mem_ctrls.rdQLenPdf::1                   19228                       # What read queue length does an incoming req see
system.mem_ctrls.rdQLenPdf::2                       1                       # What read queue length does an incoming req see
system.mem_ctrls.rdQLenPdf::3                       0                       # What read queue length does an incoming req see
system.mem_ctrls.rdQLenPdf::4                       0                       # What read queue length does an incoming req see
system.mem_ctrls.rdQLenPdf::5                       0                       # What read queue length does an incoming req see
system.mem_ctrls.rdQLenPdf::6                       0                       # What read queue length does an incoming req see
system.mem_ctrls.rdQLenPdf::7                       0                       # What read queue length does an incoming req see
system.mem_ctrls.rdQLenPdf::8                       0                       # What read queue length does an incoming req see
system.mem_ctrls.rdQLenPdf::9                       0                       # What read queue length does an incoming req see
system.mem_ctrls.rdQLenPdf::10                      0                       # What read queue length does an incoming req see
system.mem_ctrls.rdQLenPdf::11                      0                       # What read queue length does an incoming req see
system.mem_ctrls.rdQLenPdf::12                      0                       # What read queue length does an incoming req see
system.mem_ctrls.rdQLenPdf::13                      0                       # What read queue length does an incoming req see
system.mem_ctrls.rdQLenPdf::14                      0                       # What read queue length does an incoming req see
system.mem_ctrls.rdQLenPdf::15                      0                       # What read queue length does an incoming req see
system.mem_ctrls.rdQLenPdf::16                      0                       # What read queue length does an incoming req see
system.mem_ctrls.rdQLenPdf::17                      0                       # What read queue length does an incoming req see
system.mem_ctrls.rdQLenPdf::18                      0                       # What read queue length does an incoming req see
system.mem_ctrls.rdQLenPdf::19                      0                       # What read queue length does an incoming req see
system.mem_ctrls.rdQLenPdf::20                      0                       # What read queue length does an incoming req see
system.mem_ctrls.rdQLenPdf::21                      0                       # What read queue length does an incoming req see
system.mem_ctrls.rdQLenPdf::22                      0                       # What read queue length does an incoming req see
system.mem_ctrls.rdQLenPdf::23                      0                       # What read queue length does an incoming req see
system.mem_ctrls.rdQLenPdf::24                      0                       # What read queue length does an incoming req see
system.mem_ctrls.rdQLenPdf::25                      0                       # What read queue length does an incoming req see
system.mem_ctrls.rdQLenPdf::26                      0                       # What read queue length does an incoming req see
system.mem_ctrls.rdQLenPdf::27                      0                       # What read queue length does an incoming req see
system.mem_ctrls.rdQLenPdf::28                      0                       # What read queue length does an incoming req see
system.mem_ctrls.rdQLenPdf::29                      0                       # What read queue length does an incoming req see
system.mem_ctrls.rdQLenPdf::30                      0                       # What read queue length does an incoming req see
system.mem_ctrls.rdQLenPdf::31                      0                       # What read queue length does an incoming req see
system.mem_ctrls.wrQLenPdf::0                       0                       # What write queue length does an incoming req see
system.mem_ctrls.wrQLenPdf::1                       0                       # What write queue length does an incoming req see
system.mem_ctrls.wrQLenPdf::2                       0                       # What write queue length does an incoming req see
system.mem_ctrls.wrQLenPdf::3                       0                       # What write queue length does an incoming req see
system.mem_ctrls.wrQLenPdf::4                       0                       # What write queue length does an incoming req see
system.mem_ctrls.wrQLenPdf::5                       0                       # What write queue length does an incoming req see
system.mem_ctrls.wrQLenPdf::6                       0                       # What write queue length does an incoming req see
system.mem_ctrls.wrQLenPdf::7                       0                       # What write queue length does an incoming req see
system.mem_ctrls.wrQLenPdf::8                       0                       # What write queue length does an incoming req see
system.mem_ctrls.wrQLenPdf::9                       0                       # What write queue length does an incoming req see
system.mem_ctrls.wrQLenPdf::10                      0                       # What write queue length does an incoming req see
system.mem_ctrls.wrQLenPdf::11                      0                       # What write queue length does an incoming req see
system.mem_ctrls.wrQLenPdf::12                      0                       # What write queue length does an incoming req see
system.mem_ctrls.wrQLenPdf::13                      0                       # What write queue length does an incoming req see
system.mem_ctrls.wrQLenPdf::14                      0                       # What write queue length does an incoming req see
system.mem_ctrls.wrQLenPdf::15                   5176                       # What write queue length does an incoming req see
system.mem_ctrls.wrQLenPdf::16                   6256                       # What write queue length does an incoming req see
system.mem_ctrls.wrQLenPdf::17                 438961                       # What write queue length does an incoming req see
system.mem_ctrls.wrQLenPdf::18                 445954                       # What write queue length does an incoming req see
system.mem_ctrls.wrQLenPdf::19                 446398                       # What write queue length does an incoming req see
system.mem_ctrls.wrQLenPdf::20                 446302                       # What write queue length does an incoming req see
system.mem_ctrls.wrQLenPdf::21                 446407                       # What write queue length does an incoming req see
system.mem_ctrls.wrQLenPdf::22                 446714                       # What write queue length does an incoming req see
system.mem_ctrls.wrQLenPdf::23                 446481                       # What write queue length does an incoming req see
system.mem_ctrls.wrQLenPdf::24                 446299                       # What write queue length does an incoming req see
system.mem_ctrls.wrQLenPdf::25                 445814                       # What write queue length does an incoming req see
system.mem_ctrls.wrQLenPdf::26                 445397                       # What write queue length does an incoming req see
system.mem_ctrls.wrQLenPdf::27                 445219                       # What write queue length does an incoming req see
system.mem_ctrls.wrQLenPdf::28                 445158                       # What write queue length does an incoming req see
system.mem_ctrls.wrQLenPdf::29                 445135                       # What write queue length does an incoming req see
system.mem_ctrls.wrQLenPdf::30                 445119                       # What write queue length does an incoming req see
system.mem_ctrls.wrQLenPdf::31                 445116                       # What write queue length does an incoming req see
system.mem_ctrls.wrQLenPdf::32                 445114                       # What write queue length does an incoming req see
system.mem_ctrls.wrQLenPdf::33                    123                       # What write queue length does an incoming req see
system.mem_ctrls.wrQLenPdf::34                     46                       # What write queue length does an incoming req see
system.mem_ctrls.wrQLenPdf::35                     29                       # What write queue length does an incoming req see
system.mem_ctrls.wrQLenPdf::36                     20                       # What write queue length does an incoming req see
system.mem_ctrls.wrQLenPdf::37                     14                       # What write queue length does an incoming req see
system.mem_ctrls.wrQLenPdf::38                      5                       # What write queue length does an incoming req see
system.mem_ctrls.wrQLenPdf::39                      2                       # What write queue length does an incoming req see
system.mem_ctrls.wrQLenPdf::40                      0                       # What write queue length does an incoming req see
system.mem_ctrls.wrQLenPdf::41                      0                       # What write queue length does an incoming req see
system.mem_ctrls.wrQLenPdf::42                      0                       # What write queue length does an incoming req see
system.mem_ctrls.wrQLenPdf::43                      0                       # What write queue length does an incoming req see
system.mem_ctrls.wrQLenPdf::44                      0                       # What write queue length does an incoming req see
system.mem_ctrls.wrQLenPdf::45                      0                       # What write queue length does an incoming req see
system.mem_ctrls.wrQLenPdf::46                      0                       # What write queue length does an incoming req see
system.mem_ctrls.wrQLenPdf::47                      0                       # What write queue length does an incoming req see
system.mem_ctrls.wrQLenPdf::48                      0                       # What write queue length does an incoming req see
system.mem_ctrls.wrQLenPdf::49                      0                       # What write queue length does an incoming req see
system.mem_ctrls.wrQLenPdf::50                      0                       # What write queue length does an incoming req see
system.mem_ctrls.wrQLenPdf::51                      0                       # What write queue length does an incoming req see
system.mem_ctrls.wrQLenPdf::52                      0                       # What write queue length does an incoming req see
system.mem_ctrls.wrQLenPdf::53                      0                       # What write queue length does an incoming req see
system.mem_ctrls.wrQLenPdf::54                      0                       # What write queue length does an incoming req see
system.mem_ctrls.wrQLenPdf::55                      0                       # What write queue length does an incoming req see
system.mem_ctrls.wrQLenPdf::56                      0                       # What write queue length does an incoming req see
system.mem_ctrls.wrQLenPdf::57                      0                       # What write queue length does an incoming req see
system.mem_ctrls.wrQLenPdf::58                      0                       # What write queue length does an incoming req see
system.mem_ctrls.wrQLenPdf::59                      0                       # What write queue length does an incoming req see
system.mem_ctrls.wrQLenPdf::60                      0                       # What write queue length does an incoming req see
system.mem_ctrls.wrQLenPdf::61                      0                       # What write queue length does an incoming req see
system.mem_ctrls.wrQLenPdf::62                      0                       # What write queue length does an incoming req see
system.mem_ctrls.wrQLenPdf::63                      0                       # What write queue length does an incoming req see
system.mem_ctrls.bytesPerActivate::samples      8254008                       # Bytes accessed per row activation
system.mem_ctrls.bytesPerActivate::mean    110.025500                       # Bytes accessed per row activation
system.mem_ctrls.bytesPerActivate::gmean    84.572187                       # Bytes accessed per row activation
system.mem_ctrls.bytesPerActivate::stdev   132.745364                       # Bytes accessed per row activation
system.mem_ctrls.bytesPerActivate::0-127      6289504     76.20%     76.20% # Bytes accessed per row activation
system.mem_ctrls.bytesPerActivate::128-255      1227419     14.87%     91.07% # Bytes accessed per row activation
system.mem_ctrls.bytesPerActivate::256-383       386242      4.68%     95.75% # Bytes accessed per row activation
system.mem_ctrls.bytesPerActivate::384-511       123631      1.50%     97.25% # Bytes accessed per row activation
system.mem_ctrls.bytesPerActivate::512-639        72444      0.88%     98.12% # Bytes accessed per row activation
system.mem_ctrls.bytesPerActivate::640-767        42347      0.51%     98.64% # Bytes accessed per row activation
system.mem_ctrls.bytesPerActivate::768-895        28033      0.34%     98.98% # Bytes accessed per row activation
system.mem_ctrls.bytesPerActivate::896-1023        19406      0.24%     99.21% # Bytes accessed per row activation
system.mem_ctrls.bytesPerActivate::1024-1151        64982      0.79%    100.00% # Bytes accessed per row activation
system.mem_ctrls.bytesPerActivate::total      8254008                       # Bytes accessed per row activation
system.mem_ctrls.rdPerTurnAround::samples       445110                       # Reads before turning the bus around for writes
system.mem_ctrls.rdPerTurnAround::mean      15.844632                       # Reads before turning the bus around for writes
system.mem_ctrls.rdPerTurnAround::stdev      2.163819                       # Reads before turning the bus around for writes
system.mem_ctrls.rdPerTurnAround::0-7            3187      0.72%      0.72% # Reads before turning the bus around for writes
system.mem_ctrls.rdPerTurnAround::8-15          47312     10.63%     11.35% # Reads before turning the bus around for writes
system.mem_ctrls.rdPerTurnAround::16-23        392861     88.26%     99.61% # Reads before turning the bus around for writes
system.mem_ctrls.rdPerTurnAround::24-31           988      0.22%     99.83% # Reads before turning the bus around for writes
system.mem_ctrls.rdPerTurnAround::32-39           504      0.11%     99.94% # Reads before turning the bus around for writes
system.mem_ctrls.rdPerTurnAround::40-47            50      0.01%     99.95% # Reads before turning the bus around for writes
system.mem_ctrls.rdPerTurnAround::48-55            24      0.01%     99.96% # Reads before turning the bus around for writes
system.mem_ctrls.rdPerTurnAround::56-63            14      0.00%     99.96% # Reads before turning the bus around for writes
system.mem_ctrls.rdPerTurnAround::64-71            28      0.01%     99.97% # Reads before turning the bus around for writes
system.mem_ctrls.rdPerTurnAround::72-79            53      0.01%     99.98% # Reads before turning the bus around for writes
system.mem_ctrls.rdPerTurnAround::80-87            15      0.00%     99.98% # Reads before turning the bus around for writes
system.mem_ctrls.rdPerTurnAround::88-95            32      0.01%     99.99% # Reads before turning the bus around for writes
system.mem_ctrls.rdPerTurnAround::96-103            3      0.00%     99.99% # Reads before turning the bus around for writes
system.mem_ctrls.rdPerTurnAround::104-111            5      0.00%     99.99% # Reads before turning the bus around for writes
system.mem_ctrls.rdPerTurnAround::112-119           12      0.00%    100.00% # Reads before turning the bus around for writes
system.mem_ctrls.rdPerTurnAround::120-127           14      0.00%    100.00% # Reads before turning the bus around for writes
system.mem_ctrls.rdPerTurnAround::128-135            8      0.00%    100.00% # Reads before turning the bus around for writes
system.mem_ctrls.rdPerTurnAround::total        445110                       # Reads before turning the bus around for writes
system.mem_ctrls.wrPerTurnAround::samples       445110                       # Writes before turning the bus around for reads
system.mem_ctrls.wrPerTurnAround::mean      16.034823                       # Writes before turning the bus around for reads
system.mem_ctrls.wrPerTurnAround::gmean     16.032226                       # Writes before turning the bus around for reads
system.mem_ctrls.wrPerTurnAround::stdev      0.306448                       # Writes before turning the bus around for reads
system.mem_ctrls.wrPerTurnAround::16           438458     98.51%     98.51% # Writes before turning the bus around for reads
system.mem_ctrls.wrPerTurnAround::17              829      0.19%     98.69% # Writes before turning the bus around for reads
system.mem_ctrls.wrPerTurnAround::18             3876      0.87%     99.56% # Writes before turning the bus around for reads
system.mem_ctrls.wrPerTurnAround::19             1110      0.25%     99.81% # Writes before turning the bus around for reads
system.mem_ctrls.wrPerTurnAround::20              699      0.16%     99.97% # Writes before turning the bus around for reads
system.mem_ctrls.wrPerTurnAround::21               95      0.02%     99.99% # Writes before turning the bus around for reads
system.mem_ctrls.wrPerTurnAround::22               19      0.00%     99.99% # Writes before turning the bus around for reads
system.mem_ctrls.wrPerTurnAround::23                7      0.00%    100.00% # Writes before turning the bus around for reads
system.mem_ctrls.wrPerTurnAround::24                6      0.00%    100.00% # Writes before turning the bus around for reads
system.mem_ctrls.wrPerTurnAround::25                5      0.00%    100.00% # Writes before turning the bus around for reads
system.mem_ctrls.wrPerTurnAround::26                4      0.00%    100.00% # Writes before turning the bus around for reads
system.mem_ctrls.wrPerTurnAround::27                2      0.00%    100.00% # Writes before turning the bus around for reads
system.mem_ctrls.wrPerTurnAround::total        445110                       # Writes before turning the bus around for reads
system.mem_ctrls.totQLat                 166877079958                       # Total ticks spent queuing
system.mem_ctrls.totMemAccLat            299113386208                       # Total ticks spent from burst creation until serviced by the DRAM
system.mem_ctrls.totBusLat                35263015000                       # Total ticks spent in databus transfers
system.mem_ctrls.avgQLat                     23661.77                       # Average queueing delay per DRAM burst
system.mem_ctrls.avgBusLat                    5000.00                       # Average bus latency per DRAM burst
system.mem_ctrls.avgMemAccLat                42411.77                       # Average memory access latency per DRAM burst
system.mem_ctrls.avgRdBW                       311.77                       # Average DRAM read bandwidth in MiByte/s
system.mem_ctrls.avgWrBW                       315.51                       # Average achieved write bandwidth in MiByte/s
system.mem_ctrls.avgRdBWSys                    315.51                       # Average system read bandwidth in MiByte/s
system.mem_ctrls.avgWrBWSys                    315.51                       # Average system write bandwidth in MiByte/s
system.mem_ctrls.peakBW                      12800.00                       # Theoretical peak bandwidth in MiByte/s
system.mem_ctrls.busUtil                         4.90                       # Data bus utilization in percentage
system.mem_ctrls.busUtilRead                     2.44                       # Data bus utilization in percentage for reads
system.mem_ctrls.busUtilWrite                    2.46                       # Data bus utilization in percentage for writes
system.mem_ctrls.avgRdQLen                       1.00                       # Average read queue length when enqueuing
system.mem_ctrls.avgWrQLen                      25.71                       # Average write queue length when enqueuing
system.mem_ctrls.readRowHits                  2823365                       # Number of row buffer hits during reads
system.mem_ctrls.writeRowHits                 3112493                       # Number of row buffer hits during writes
system.mem_ctrls.readRowHitRate                 40.03                       # Row buffer hit rate for reads
system.mem_ctrls.writeRowHitRate                43.61                       # Row buffer hit rate for writes
system.mem_ctrls.avgGap                     101423.23                       # Average gap between requests
system.mem_ctrls.pageHitRate                    41.83                       # Row buffer hit rate, read and write combined
system.mem_ctrls_0.actEnergy              32039771400                       # Energy for activate commands per rank (pJ)
system.mem_ctrls_0.preEnergy              17482018125                       # Energy for precharge commands per rank (pJ)
system.mem_ctrls_0.readEnergy             28549138800                       # Energy for read commands per rank (pJ)
system.mem_ctrls_0.writeEnergy            23991435360                       # Energy for write commands per rank (pJ)
system.mem_ctrls_0.refreshEnergy          95138353440                       # Energy for refresh commands per rank (pJ)
system.mem_ctrls_0.actBackEnergy         526366998180                       # Energy for active background per rank (pJ)
system.mem_ctrls_0.preBackEnergy         412237678500                       # Energy for precharge background per rank (pJ)
system.mem_ctrls_0.totalEnergy           1135805393805                       # Total energy per rank (pJ)
system.mem_ctrls_0.averagePower            779.762011                       # Core power per rank (mW)
system.mem_ctrls_0.memoryStateTime::IDLE 681878383000                       # Time in different power states
system.mem_ctrls_0.memoryStateTime::REF   48344400000                       # Time in different power states
system.mem_ctrls_0.memoryStateTime::PRE_PDN            0                       # Time in different power states
system.mem_ctrls_0.memoryStateTime::ACT  717552820000                       # Time in different power states
system.mem_ctrls_0.memoryStateTime::ACT_PDN            0                       # Time in different power states
system.mem_ctrls_1.actEnergy              30677981040                       # Energy for activate commands per rank (pJ)
system.mem_ctrls_1.preEnergy              16738977750                       # Energy for precharge commands per rank (pJ)
system.mem_ctrls_1.readEnergy             26965356600                       # Energy for read commands per rank (pJ)
system.mem_ctrls_1.writeEnergy            22663845360                       # Energy for write commands per rank (pJ)
system.mem_ctrls_1.refreshEnergy          95138353440                       # Energy for refresh commands per rank (pJ)
system.mem_ctrls_1.actBackEnergy         544949024400                       # Energy for active background per rank (pJ)
system.mem_ctrls_1.preBackEnergy         395937657750                       # Energy for precharge background per rank (pJ)
system.mem_ctrls_1.totalEnergy           1133071196340                       # Total energy per rank (pJ)
system.mem_ctrls_1.averagePower            777.884906                       # Core power per rank (mW)
system.mem_ctrls_1.memoryStateTime::IDLE 654666001750                       # Time in different power states
system.mem_ctrls_1.memoryStateTime::REF   48344400000                       # Time in different power states
system.mem_ctrls_1.memoryStateTime::PRE_PDN            0                       # Time in different power states
system.mem_ctrls_1.memoryStateTime::ACT  744765020500                       # Time in different power states
system.mem_ctrls_1.memoryStateTime::ACT_PDN            0                       # Time in different power states
system.cpu_voltage_domain.voltage                   1                       # Voltage in Volts
system.cpu_clk_domain.clock                       500                       # Clock period in ticks
system.cpu0.apic_clk_domain.clock                8000                       # Clock period in ticks
system.cpu0.numCycles                      2892514094                       # number of cpu cycles simulated
system.cpu0.numWorkItemsStarted                     0                       # number of work items this cpu started
system.cpu0.numWorkItemsCompleted                   0                       # number of work items this cpu completed
system.cpu0.kern.inst.arm                           0                       # number of arm instructions executed
system.cpu0.kern.inst.quiesce                       0                       # number of quiesce instructions executed
system.cpu0.committedInsts                    3276501                       # Number of instructions committed
system.cpu0.committedOps                      6594960                       # Number of ops (including micro ops) committed
system.cpu0.num_int_alu_accesses              6477482                       # Number of integer alu accesses
system.cpu0.num_fp_alu_accesses                  1826                       # Number of float alu accesses
system.cpu0.num_func_calls                     177262                       # number of times a function call or return occured
system.cpu0.num_conditional_control_insts       533971                       # number of instructions that are conditional controls
system.cpu0.num_int_insts                     6477482                       # number of integer instructions
system.cpu0.num_fp_insts                         1826                       # number of float instructions
system.cpu0.num_int_register_reads           12929590                       # number of times the integer registers were read
system.cpu0.num_int_register_writes           5271511                       # number of times the integer registers were written
system.cpu0.num_fp_register_reads                3068                       # number of times the floating registers were read
system.cpu0.num_fp_register_writes               1448                       # number of times the floating registers were written
system.cpu0.num_cc_register_reads             4047379                       # number of times the CC registers were read
system.cpu0.num_cc_register_writes            2224708                       # number of times the CC registers were written
system.cpu0.num_mem_refs                      1492662                       # number of memory refs
system.cpu0.num_load_insts                     960582                       # Number of load instructions
system.cpu0.num_store_insts                    532080                       # Number of store instructions
system.cpu0.num_idle_cycles              2867563050.822531                       # Number of idle cycles
system.cpu0.num_busy_cycles              24951043.177469                       # Number of busy cycles
system.cpu0.not_idle_fraction                0.008626                       # Percentage of non-idle cycles
system.cpu0.idle_fraction                    0.991374                       # Percentage of idle cycles
system.cpu0.Branches                           745804                       # Number of branches fetched
system.cpu0.op_class::No_OpClass                47510      0.72%      0.72% # Class of executed instruction
system.cpu0.op_class::IntAlu                  5033232     76.32%     77.04% # Class of executed instruction
system.cpu0.op_class::IntMult                    5729      0.09%     77.13% # Class of executed instruction
system.cpu0.op_class::IntDiv                    14541      0.22%     77.35% # Class of executed instruction
system.cpu0.op_class::FloatAdd                   1376      0.02%     77.37% # Class of executed instruction
system.cpu0.op_class::FloatCmp                      0      0.00%     77.37% # Class of executed instruction
system.cpu0.op_class::FloatCvt                      0      0.00%     77.37% # Class of executed instruction
system.cpu0.op_class::FloatMult                     0      0.00%     77.37% # Class of executed instruction
system.cpu0.op_class::FloatDiv                      0      0.00%     77.37% # Class of executed instruction
system.cpu0.op_class::FloatSqrt                     0      0.00%     77.37% # Class of executed instruction
system.cpu0.op_class::SimdAdd                       0      0.00%     77.37% # Class of executed instruction
system.cpu0.op_class::SimdAddAcc                    0      0.00%     77.37% # Class of executed instruction
system.cpu0.op_class::SimdAlu                       0      0.00%     77.37% # Class of executed instruction
system.cpu0.op_class::SimdCmp                       0      0.00%     77.37% # Class of executed instruction
system.cpu0.op_class::SimdCvt                       0      0.00%     77.37% # Class of executed instruction
system.cpu0.op_class::SimdMisc                      0      0.00%     77.37% # Class of executed instruction
system.cpu0.op_class::SimdMult                      0      0.00%     77.37% # Class of executed instruction
system.cpu0.op_class::SimdMultAcc                   0      0.00%     77.37% # Class of executed instruction
system.cpu0.op_class::SimdShift                     0      0.00%     77.37% # Class of executed instruction
system.cpu0.op_class::SimdShiftAcc                  0      0.00%     77.37% # Class of executed instruction
system.cpu0.op_class::SimdSqrt                      0      0.00%     77.37% # Class of executed instruction
system.cpu0.op_class::SimdFloatAdd                  0      0.00%     77.37% # Class of executed instruction
system.cpu0.op_class::SimdFloatAlu                  0      0.00%     77.37% # Class of executed instruction
system.cpu0.op_class::SimdFloatCmp                  0      0.00%     77.37% # Class of executed instruction
system.cpu0.op_class::SimdFloatCvt                  0      0.00%     77.37% # Class of executed instruction
system.cpu0.op_class::SimdFloatDiv                  0      0.00%     77.37% # Class of executed instruction
system.cpu0.op_class::SimdFloatMisc                 0      0.00%     77.37% # Class of executed instruction
system.cpu0.op_class::SimdFloatMult                 0      0.00%     77.37% # Class of executed instruction
system.cpu0.op_class::SimdFloatMultAcc              0      0.00%     77.37% # Class of executed instruction
system.cpu0.op_class::SimdFloatSqrt                 0      0.00%     77.37% # Class of executed instruction
system.cpu0.op_class::MemRead                  960582     14.57%     91.93% # Class of executed instruction
system.cpu0.op_class::MemWrite                 532080      8.07%    100.00% # Class of executed instruction
system.cpu0.op_class::IprAccess                     0      0.00%    100.00% # Class of executed instruction
system.cpu0.op_class::InstPrefetch                  0      0.00%    100.00% # Class of executed instruction
system.cpu0.op_class::total                   6595050                       # Class of executed instruction
system.cpu1.apic_clk_domain.clock                8000                       # Clock period in ticks
system.cpu1.numCycles                      2895350511                       # number of cpu cycles simulated
system.cpu1.numWorkItemsStarted                     0                       # number of work items this cpu started
system.cpu1.numWorkItemsCompleted                   0                       # number of work items this cpu completed
system.cpu1.kern.inst.arm                           0                       # number of arm instructions executed
system.cpu1.kern.inst.quiesce                       0                       # number of quiesce instructions executed
system.cpu1.committedInsts                    1059600                       # Number of instructions committed
system.cpu1.committedOps                      2265225                       # Number of ops (including micro ops) committed
system.cpu1.num_int_alu_accesses              2213686                       # Number of integer alu accesses
system.cpu1.num_fp_alu_accesses                    39                       # Number of float alu accesses
system.cpu1.num_func_calls                      62420                       # number of times a function call or return occured
system.cpu1.num_conditional_control_insts       159214                       # number of instructions that are conditional controls
system.cpu1.num_int_insts                     2213686                       # number of integer instructions
system.cpu1.num_fp_insts                           39                       # number of float instructions
system.cpu1.num_int_register_reads            4501672                       # number of times the integer registers were read
system.cpu1.num_int_register_writes           1830121                       # number of times the integer registers were written
system.cpu1.num_fp_register_reads                  63                       # number of times the floating registers were read
system.cpu1.num_fp_register_writes                 31                       # number of times the floating registers were written
system.cpu1.num_cc_register_reads             1245324                       # number of times the CC registers were read
system.cpu1.num_cc_register_writes             666187                       # number of times the CC registers were written
system.cpu1.num_mem_refs                       543450                       # number of memory refs
system.cpu1.num_load_insts                     339434                       # Number of load instructions
system.cpu1.num_store_insts                    204016                       # Number of store instructions
system.cpu1.num_idle_cycles              2886879758.081091                       # Number of idle cycles
system.cpu1.num_busy_cycles              8470752.918909                       # Number of busy cycles
system.cpu1.not_idle_fraction                0.002926                       # Percentage of non-idle cycles
system.cpu1.idle_fraction                    0.997074                       # Percentage of idle cycles
system.cpu1.Branches                           241856                       # Number of branches fetched
system.cpu1.op_class::No_OpClass                38048      1.68%      1.68% # Class of executed instruction
system.cpu1.op_class::IntAlu                  1665264     73.51%     75.19% # Class of executed instruction
system.cpu1.op_class::IntMult                    5457      0.24%     75.43% # Class of executed instruction
system.cpu1.op_class::IntDiv                    12998      0.57%     76.01% # Class of executed instruction
system.cpu1.op_class::FloatAdd                     30      0.00%     76.01% # Class of executed instruction
system.cpu1.op_class::FloatCmp                      0      0.00%     76.01% # Class of executed instruction
system.cpu1.op_class::FloatCvt                      0      0.00%     76.01% # Class of executed instruction
system.cpu1.op_class::FloatMult                     0      0.00%     76.01% # Class of executed instruction
system.cpu1.op_class::FloatDiv                      0      0.00%     76.01% # Class of executed instruction
system.cpu1.op_class::FloatSqrt                     0      0.00%     76.01% # Class of executed instruction
system.cpu1.op_class::SimdAdd                       0      0.00%     76.01% # Class of executed instruction
system.cpu1.op_class::SimdAddAcc                    0      0.00%     76.01% # Class of executed instruction
system.cpu1.op_class::SimdAlu                       0      0.00%     76.01% # Class of executed instruction
system.cpu1.op_class::SimdCmp                       0      0.00%     76.01% # Class of executed instruction
system.cpu1.op_class::SimdCvt                       0      0.00%     76.01% # Class of executed instruction
system.cpu1.op_class::SimdMisc                      0      0.00%     76.01% # Class of executed instruction
system.cpu1.op_class::SimdMult                      0      0.00%     76.01% # Class of executed instruction
system.cpu1.op_class::SimdMultAcc                   0      0.00%     76.01% # Class of executed instruction
system.cpu1.op_class::SimdShift                     0      0.00%     76.01% # Class of executed instruction
system.cpu1.op_class::SimdShiftAcc                  0      0.00%     76.01% # Class of executed instruction
system.cpu1.op_class::SimdSqrt                      0      0.00%     76.01% # Class of executed instruction
system.cpu1.op_class::SimdFloatAdd                  0      0.00%     76.01% # Class of executed instruction
system.cpu1.op_class::SimdFloatAlu                  0      0.00%     76.01% # Class of executed instruction
system.cpu1.op_class::SimdFloatCmp                  0      0.00%     76.01% # Class of executed instruction
system.cpu1.op_class::SimdFloatCvt                  0      0.00%     76.01% # Class of executed instruction
system.cpu1.op_class::SimdFloatDiv                  0      0.00%     76.01% # Class of executed instruction
system.cpu1.op_class::SimdFloatMisc                 0      0.00%     76.01% # Class of executed instruction
system.cpu1.op_class::SimdFloatMult                 0      0.00%     76.01% # Class of executed instruction
system.cpu1.op_class::SimdFloatMultAcc              0      0.00%     76.01% # Class of executed instruction
system.cpu1.op_class::SimdFloatSqrt                 0      0.00%     76.01% # Class of executed instruction
system.cpu1.op_class::MemRead                  339434     14.98%     90.99% # Class of executed instruction
system.cpu1.op_class::MemWrite                 204016      9.01%    100.00% # Class of executed instruction
system.cpu1.op_class::IprAccess                     0      0.00%    100.00% # Class of executed instruction
system.cpu1.op_class::InstPrefetch                  0      0.00%    100.00% # Class of executed instruction
system.cpu1.op_class::total                   2265247                       # Class of executed instruction
system.cpu2.apic_clk_domain.clock                8000                       # Clock period in ticks
system.cpu2.numCycles                      2898540887                       # number of cpu cycles simulated
system.cpu2.numWorkItemsStarted                     0                       # number of work items this cpu started
system.cpu2.numWorkItemsCompleted                   0                       # number of work items this cpu completed
system.cpu2.kern.inst.arm                           0                       # number of arm instructions executed
system.cpu2.kern.inst.quiesce                       0                       # number of quiesce instructions executed
system.cpu2.committedInsts                  533933367                       # Number of instructions committed
system.cpu2.committedOps                    709351328                       # Number of ops (including micro ops) committed
system.cpu2.num_int_alu_accesses            508971972                       # Number of integer alu accesses
system.cpu2.num_fp_alu_accesses             331101068                       # Number of float alu accesses
system.cpu2.num_func_calls                     438461                       # number of times a function call or return occured
system.cpu2.num_conditional_control_insts     31476334                       # number of instructions that are conditional controls
system.cpu2.num_int_insts                   508971972                       # number of integer instructions
system.cpu2.num_fp_insts                    331101068                       # number of float instructions
system.cpu2.num_int_register_reads         1070459256                       # number of times the integer registers were read
system.cpu2.num_int_register_writes         339980702                       # number of times the integer registers were written
system.cpu2.num_fp_register_reads           564014582                       # number of times the floating registers were read
system.cpu2.num_fp_register_writes          276695748                       # number of times the floating registers were written
system.cpu2.num_cc_register_reads           220363862                       # number of times the CC registers were read
system.cpu2.num_cc_register_writes          241406405                       # number of times the CC registers were written
system.cpu2.num_mem_refs                    152884485                       # number of memory refs
system.cpu2.num_load_insts                   94791389                       # Number of load instructions
system.cpu2.num_store_insts                  58093096                       # Number of store instructions
system.cpu2.num_idle_cycles              13909852.485504                       # Number of idle cycles
system.cpu2.num_busy_cycles              2884631034.514496                       # Number of busy cycles
system.cpu2.not_idle_fraction                0.995201                       # Percentage of non-idle cycles
system.cpu2.idle_fraction                    0.004799                       # Percentage of idle cycles
system.cpu2.Branches                         33895321                       # Number of branches fetched
system.cpu2.op_class::No_OpClass               956457      0.13%      0.13% # Class of executed instruction
system.cpu2.op_class::IntAlu                444198549     62.62%     62.75% # Class of executed instruction
system.cpu2.op_class::IntMult                   25194      0.00%     62.76% # Class of executed instruction
system.cpu2.op_class::IntDiv                   145213      0.02%     62.78% # Class of executed instruction
system.cpu2.op_class::FloatAdd              111149730     15.67%     78.45% # Class of executed instruction
system.cpu2.op_class::FloatCmp                      0      0.00%     78.45% # Class of executed instruction
system.cpu2.op_class::FloatCvt                      0      0.00%     78.45% # Class of executed instruction
system.cpu2.op_class::FloatMult                     0      0.00%     78.45% # Class of executed instruction
system.cpu2.op_class::FloatDiv                      0      0.00%     78.45% # Class of executed instruction
system.cpu2.op_class::FloatSqrt                     0      0.00%     78.45% # Class of executed instruction
system.cpu2.op_class::SimdAdd                       0      0.00%     78.45% # Class of executed instruction
system.cpu2.op_class::SimdAddAcc                    0      0.00%     78.45% # Class of executed instruction
system.cpu2.op_class::SimdAlu                       0      0.00%     78.45% # Class of executed instruction
system.cpu2.op_class::SimdCmp                       0      0.00%     78.45% # Class of executed instruction
system.cpu2.op_class::SimdCvt                       0      0.00%     78.45% # Class of executed instruction
system.cpu2.op_class::SimdMisc                      0      0.00%     78.45% # Class of executed instruction
system.cpu2.op_class::SimdMult                      0      0.00%     78.45% # Class of executed instruction
system.cpu2.op_class::SimdMultAcc                   0      0.00%     78.45% # Class of executed instruction
system.cpu2.op_class::SimdShift                     0      0.00%     78.45% # Class of executed instruction
system.cpu2.op_class::SimdShiftAcc                  0      0.00%     78.45% # Class of executed instruction
system.cpu2.op_class::SimdSqrt                      0      0.00%     78.45% # Class of executed instruction
system.cpu2.op_class::SimdFloatAdd                  0      0.00%     78.45% # Class of executed instruction
system.cpu2.op_class::SimdFloatAlu                  0      0.00%     78.45% # Class of executed instruction
system.cpu2.op_class::SimdFloatCmp                  0      0.00%     78.45% # Class of executed instruction
system.cpu2.op_class::SimdFloatCvt                  0      0.00%     78.45% # Class of executed instruction
system.cpu2.op_class::SimdFloatDiv                  0      0.00%     78.45% # Class of executed instruction
system.cpu2.op_class::SimdFloatMisc                 0      0.00%     78.45% # Class of executed instruction
system.cpu2.op_class::SimdFloatMult                 0      0.00%     78.45% # Class of executed instruction
system.cpu2.op_class::SimdFloatMultAcc              0      0.00%     78.45% # Class of executed instruction
system.cpu2.op_class::SimdFloatSqrt                 0      0.00%     78.45% # Class of executed instruction
system.cpu2.op_class::MemRead                94791389     13.36%     91.81% # Class of executed instruction
system.cpu2.op_class::MemWrite               58093096      8.19%    100.00% # Class of executed instruction
system.cpu2.op_class::IprAccess                     0      0.00%    100.00% # Class of executed instruction
system.cpu2.op_class::InstPrefetch                  0      0.00%    100.00% # Class of executed instruction
system.cpu2.op_class::total                 709359628                       # Class of executed instruction
system.cpu3.apic_clk_domain.clock                8000                       # Clock period in ticks
system.cpu3.numCycles                      2892210840                       # number of cpu cycles simulated
system.cpu3.numWorkItemsStarted                     0                       # number of work items this cpu started
system.cpu3.numWorkItemsCompleted                   0                       # number of work items this cpu completed
system.cpu3.kern.inst.arm                           0                       # number of arm instructions executed
system.cpu3.kern.inst.quiesce                       0                       # number of quiesce instructions executed
system.cpu3.committedInsts                     961126                       # Number of instructions committed
system.cpu3.committedOps                      2078862                       # Number of ops (including micro ops) committed
system.cpu3.num_int_alu_accesses              2033780                       # Number of integer alu accesses
system.cpu3.num_fp_alu_accesses                     0                       # Number of float alu accesses
system.cpu3.num_func_calls                      58022                       # number of times a function call or return occured
system.cpu3.num_conditional_control_insts       144076                       # number of instructions that are conditional controls
system.cpu3.num_int_insts                     2033780                       # number of integer instructions
system.cpu3.num_fp_insts                            0                       # number of float instructions
system.cpu3.num_int_register_reads            4131207                       # number of times the integer registers were read
system.cpu3.num_int_register_writes           1686925                       # number of times the integer registers were written
system.cpu3.num_fp_register_reads                   0                       # number of times the floating registers were read
system.cpu3.num_fp_register_writes                  0                       # number of times the floating registers were written
system.cpu3.num_cc_register_reads             1154207                       # number of times the CC registers were read
system.cpu3.num_cc_register_writes             611414                       # number of times the CC registers were written
system.cpu3.num_mem_refs                       497256                       # number of memory refs
system.cpu3.num_load_insts                     309704                       # Number of load instructions
system.cpu3.num_store_insts                    187552                       # Number of store instructions
system.cpu3.num_idle_cycles              2884456221.898776                       # Number of idle cycles
system.cpu3.num_busy_cycles              7754618.101224                       # Number of busy cycles
system.cpu3.not_idle_fraction                0.002681                       # Percentage of non-idle cycles
system.cpu3.idle_fraction                    0.997319                       # Percentage of idle cycles
system.cpu3.Branches                           220890                       # Number of branches fetched
system.cpu3.op_class::No_OpClass                37607      1.81%      1.81% # Class of executed instruction
system.cpu3.op_class::IntAlu                  1526290     73.42%     75.23% # Class of executed instruction
system.cpu3.op_class::IntMult                    4293      0.21%     75.43% # Class of executed instruction
system.cpu3.op_class::IntDiv                    13419      0.65%     76.08% # Class of executed instruction
system.cpu3.op_class::FloatAdd                      0      0.00%     76.08% # Class of executed instruction
system.cpu3.op_class::FloatCmp                      0      0.00%     76.08% # Class of executed instruction
system.cpu3.op_class::FloatCvt                      0      0.00%     76.08% # Class of executed instruction
system.cpu3.op_class::FloatMult                     0      0.00%     76.08% # Class of executed instruction
system.cpu3.op_class::FloatDiv                      0      0.00%     76.08% # Class of executed instruction
system.cpu3.op_class::FloatSqrt                     0      0.00%     76.08% # Class of executed instruction
system.cpu3.op_class::SimdAdd                       0      0.00%     76.08% # Class of executed instruction
system.cpu3.op_class::SimdAddAcc                    0      0.00%     76.08% # Class of executed instruction
system.cpu3.op_class::SimdAlu                       0      0.00%     76.08% # Class of executed instruction
system.cpu3.op_class::SimdCmp                       0      0.00%     76.08% # Class of executed instruction
system.cpu3.op_class::SimdCvt                       0      0.00%     76.08% # Class of executed instruction
system.cpu3.op_class::SimdMisc                      0      0.00%     76.08% # Class of executed instruction
system.cpu3.op_class::SimdMult                      0      0.00%     76.08% # Class of executed instruction
system.cpu3.op_class::SimdMultAcc                   0      0.00%     76.08% # Class of executed instruction
system.cpu3.op_class::SimdShift                     0      0.00%     76.08% # Class of executed instruction
system.cpu3.op_class::SimdShiftAcc                  0      0.00%     76.08% # Class of executed instruction
system.cpu3.op_class::SimdSqrt                      0      0.00%     76.08% # Class of executed instruction
system.cpu3.op_class::SimdFloatAdd                  0      0.00%     76.08% # Class of executed instruction
system.cpu3.op_class::SimdFloatAlu                  0      0.00%     76.08% # Class of executed instruction
system.cpu3.op_class::SimdFloatCmp                  0      0.00%     76.08% # Class of executed instruction
system.cpu3.op_class::SimdFloatCvt                  0      0.00%     76.08% # Class of executed instruction
system.cpu3.op_class::SimdFloatDiv                  0      0.00%     76.08% # Class of executed instruction
system.cpu3.op_class::SimdFloatMisc                 0      0.00%     76.08% # Class of executed instruction
system.cpu3.op_class::SimdFloatMult                 0      0.00%     76.08% # Class of executed instruction
system.cpu3.op_class::SimdFloatMultAcc              0      0.00%     76.08% # Class of executed instruction
system.cpu3.op_class::SimdFloatSqrt                 0      0.00%     76.08% # Class of executed instruction
system.cpu3.op_class::MemRead                  309704     14.90%     90.98% # Class of executed instruction
system.cpu3.op_class::MemWrite                 187552      9.02%    100.00% # Class of executed instruction
system.cpu3.op_class::IprAccess                     0      0.00%    100.00% # Class of executed instruction
system.cpu3.op_class::InstPrefetch                  0      0.00%    100.00% # Class of executed instruction
system.cpu3.op_class::total                   2078865                       # Class of executed instruction
system.iobus.trans_dist::ReadReq                  715                       # Transaction distribution
system.iobus.trans_dist::ReadResp                 715                       # Transaction distribution
system.iobus.trans_dist::WriteReq                1725                       # Transaction distribution
system.iobus.trans_dist::WriteResp               1725                       # Transaction distribution
system.iobus.trans_dist::MessageReq                14                       # Transaction distribution
system.iobus.trans_dist::MessageResp               14                       # Transaction distribution
system.iobus.pkt_count_system.pc.south_bridge.io_apic.int_master::system.ruby.l1_cntrl0.sequencer.pio-slave-port            2                       # Packet count per connected master and slave (bytes)
system.iobus.pkt_count_system.pc.south_bridge.io_apic.int_master::system.ruby.l1_cntrl1.sequencer.pio-slave-port            4                       # Packet count per connected master and slave (bytes)
system.iobus.pkt_count_system.pc.south_bridge.io_apic.int_master::system.ruby.l1_cntrl2.sequencer.pio-slave-port            4                       # Packet count per connected master and slave (bytes)
system.iobus.pkt_count_system.pc.south_bridge.io_apic.int_master::system.ruby.l1_cntrl3.sequencer.pio-slave-port            2                       # Packet count per connected master and slave (bytes)
system.iobus.pkt_count_system.pc.south_bridge.io_apic.int_master::total           12                       # Packet count per connected master and slave (bytes)
system.iobus.pkt_count_system.ruby.l1_cntrl0.sequencer.mem-master-port::system.pc.south_bridge.io_apic.pio            6                       # Packet count per connected master and slave (bytes)
system.iobus.pkt_count_system.ruby.l1_cntrl0.sequencer.mem-master-port::system.pc.com_1.pio         1734                       # Packet count per connected master and slave (bytes)
system.iobus.pkt_count_system.ruby.l1_cntrl0.sequencer.mem-master-port::system.ruby.l1_cntrl0.sequencer.pio-slave-port          746                       # Packet count per connected master and slave (bytes)
system.iobus.pkt_count_system.ruby.l1_cntrl0.sequencer.mem-master-port::system.ruby.l1_cntrl1.sequencer.pio-slave-port            2                       # Packet count per connected master and slave (bytes)
system.iobus.pkt_count_system.ruby.l1_cntrl0.sequencer.mem-master-port::system.ruby.l1_cntrl2.sequencer.pio-slave-port            2                       # Packet count per connected master and slave (bytes)
system.iobus.pkt_count_system.ruby.l1_cntrl0.sequencer.mem-master-port::system.ruby.l1_cntrl3.sequencer.pio-slave-port            2                       # Packet count per connected master and slave (bytes)
system.iobus.pkt_count_system.ruby.l1_cntrl0.sequencer.mem-master-port::total         2492                       # Packet count per connected master and slave (bytes)
system.iobus.pkt_count_system.ruby.l1_cntrl1.sequencer.mem-master-port::system.pc.south_bridge.io_apic.pio           14                       # Packet count per connected master and slave (bytes)
system.iobus.pkt_count_system.ruby.l1_cntrl1.sequencer.mem-master-port::system.pc.com_1.pio          130                       # Packet count per connected master and slave (bytes)
system.iobus.pkt_count_system.ruby.l1_cntrl1.sequencer.mem-master-port::system.ruby.l1_cntrl1.sequencer.pio-slave-port          740                       # Packet count per connected master and slave (bytes)
system.iobus.pkt_count_system.ruby.l1_cntrl1.sequencer.mem-master-port::system.ruby.l1_cntrl2.sequencer.pio-slave-port            2                       # Packet count per connected master and slave (bytes)
system.iobus.pkt_count_system.ruby.l1_cntrl1.sequencer.mem-master-port::total          886                       # Packet count per connected master and slave (bytes)
system.iobus.pkt_count_system.ruby.l1_cntrl2.sequencer.mem-master-port::system.pc.south_bridge.io_apic.pio           16                       # Packet count per connected master and slave (bytes)
system.iobus.pkt_count_system.ruby.l1_cntrl2.sequencer.mem-master-port::system.ruby.l1_cntrl1.sequencer.pio-slave-port            4                       # Packet count per connected master and slave (bytes)
system.iobus.pkt_count_system.ruby.l1_cntrl2.sequencer.mem-master-port::system.ruby.l1_cntrl2.sequencer.pio-slave-port          750                       # Packet count per connected master and slave (bytes)
system.iobus.pkt_count_system.ruby.l1_cntrl2.sequencer.mem-master-port::system.ruby.l1_cntrl3.sequencer.pio-slave-port            2                       # Packet count per connected master and slave (bytes)
system.iobus.pkt_count_system.ruby.l1_cntrl2.sequencer.mem-master-port::total          772                       # Packet count per connected master and slave (bytes)
system.iobus.pkt_count_system.ruby.l1_cntrl3.sequencer.mem-master-port::system.pc.south_bridge.io_apic.pio            8                       # Packet count per connected master and slave (bytes)
system.iobus.pkt_count_system.ruby.l1_cntrl3.sequencer.mem-master-port::system.ruby.l1_cntrl0.sequencer.pio-slave-port            2                       # Packet count per connected master and slave (bytes)
system.iobus.pkt_count_system.ruby.l1_cntrl3.sequencer.mem-master-port::system.ruby.l1_cntrl3.sequencer.pio-slave-port          736                       # Packet count per connected master and slave (bytes)
system.iobus.pkt_count_system.ruby.l1_cntrl3.sequencer.mem-master-port::total          746                       # Packet count per connected master and slave (bytes)
system.iobus.pkt_count::total                    4908                       # Packet count per connected master and slave (bytes)
system.iobus.pkt_size_system.pc.south_bridge.io_apic.int_master::system.ruby.l1_cntrl0.sequencer.pio-slave-port            4                       # Cumulative packet size per connected master and slave (bytes)
system.iobus.pkt_size_system.pc.south_bridge.io_apic.int_master::system.ruby.l1_cntrl1.sequencer.pio-slave-port            8                       # Cumulative packet size per connected master and slave (bytes)
system.iobus.pkt_size_system.pc.south_bridge.io_apic.int_master::system.ruby.l1_cntrl2.sequencer.pio-slave-port            8                       # Cumulative packet size per connected master and slave (bytes)
system.iobus.pkt_size_system.pc.south_bridge.io_apic.int_master::system.ruby.l1_cntrl3.sequencer.pio-slave-port            4                       # Cumulative packet size per connected master and slave (bytes)
system.iobus.pkt_size_system.pc.south_bridge.io_apic.int_master::total           24                       # Cumulative packet size per connected master and slave (bytes)
system.iobus.pkt_size_system.ruby.l1_cntrl0.sequencer.mem-master-port::system.pc.south_bridge.io_apic.pio           12                       # Cumulative packet size per connected master and slave (bytes)
system.iobus.pkt_size_system.ruby.l1_cntrl0.sequencer.mem-master-port::system.pc.com_1.pio          867                       # Cumulative packet size per connected master and slave (bytes)
system.iobus.pkt_size_system.ruby.l1_cntrl0.sequencer.mem-master-port::system.ruby.l1_cntrl0.sequencer.pio-slave-port         1492                       # Cumulative packet size per connected master and slave (bytes)
system.iobus.pkt_size_system.ruby.l1_cntrl0.sequencer.mem-master-port::system.ruby.l1_cntrl1.sequencer.pio-slave-port            4                       # Cumulative packet size per connected master and slave (bytes)
system.iobus.pkt_size_system.ruby.l1_cntrl0.sequencer.mem-master-port::system.ruby.l1_cntrl2.sequencer.pio-slave-port            4                       # Cumulative packet size per connected master and slave (bytes)
system.iobus.pkt_size_system.ruby.l1_cntrl0.sequencer.mem-master-port::system.ruby.l1_cntrl3.sequencer.pio-slave-port            4                       # Cumulative packet size per connected master and slave (bytes)
system.iobus.pkt_size_system.ruby.l1_cntrl0.sequencer.mem-master-port::total         2383                       # Cumulative packet size per connected master and slave (bytes)
system.iobus.pkt_size_system.ruby.l1_cntrl1.sequencer.mem-master-port::system.pc.south_bridge.io_apic.pio           28                       # Cumulative packet size per connected master and slave (bytes)
system.iobus.pkt_size_system.ruby.l1_cntrl1.sequencer.mem-master-port::system.pc.com_1.pio           65                       # Cumulative packet size per connected master and slave (bytes)
system.iobus.pkt_size_system.ruby.l1_cntrl1.sequencer.mem-master-port::system.ruby.l1_cntrl1.sequencer.pio-slave-port         1480                       # Cumulative packet size per connected master and slave (bytes)
system.iobus.pkt_size_system.ruby.l1_cntrl1.sequencer.mem-master-port::system.ruby.l1_cntrl2.sequencer.pio-slave-port            4                       # Cumulative packet size per connected master and slave (bytes)
system.iobus.pkt_size_system.ruby.l1_cntrl1.sequencer.mem-master-port::total         1577                       # Cumulative packet size per connected master and slave (bytes)
system.iobus.pkt_size_system.ruby.l1_cntrl2.sequencer.mem-master-port::system.pc.south_bridge.io_apic.pio           32                       # Cumulative packet size per connected master and slave (bytes)
system.iobus.pkt_size_system.ruby.l1_cntrl2.sequencer.mem-master-port::system.ruby.l1_cntrl1.sequencer.pio-slave-port            8                       # Cumulative packet size per connected master and slave (bytes)
system.iobus.pkt_size_system.ruby.l1_cntrl2.sequencer.mem-master-port::system.ruby.l1_cntrl2.sequencer.pio-slave-port         1500                       # Cumulative packet size per connected master and slave (bytes)
system.iobus.pkt_size_system.ruby.l1_cntrl2.sequencer.mem-master-port::system.ruby.l1_cntrl3.sequencer.pio-slave-port            4                       # Cumulative packet size per connected master and slave (bytes)
system.iobus.pkt_size_system.ruby.l1_cntrl2.sequencer.mem-master-port::total         1544                       # Cumulative packet size per connected master and slave (bytes)
system.iobus.pkt_size_system.ruby.l1_cntrl3.sequencer.mem-master-port::system.pc.south_bridge.io_apic.pio           16                       # Cumulative packet size per connected master and slave (bytes)
system.iobus.pkt_size_system.ruby.l1_cntrl3.sequencer.mem-master-port::system.ruby.l1_cntrl0.sequencer.pio-slave-port            4                       # Cumulative packet size per connected master and slave (bytes)
system.iobus.pkt_size_system.ruby.l1_cntrl3.sequencer.mem-master-port::system.ruby.l1_cntrl3.sequencer.pio-slave-port         1472                       # Cumulative packet size per connected master and slave (bytes)
system.iobus.pkt_size_system.ruby.l1_cntrl3.sequencer.mem-master-port::total         1492                       # Cumulative packet size per connected master and slave (bytes)
system.iobus.pkt_size::total                     7020                       # Cumulative packet size per connected master and slave (bytes)
system.iobus.reqLayer8.occupancy                37496                       # Layer occupancy (ticks)
system.iobus.reqLayer8.utilization                0.0                       # Layer utilization (%)
system.iobus.reqLayer12.occupancy             1185000                       # Layer occupancy (ticks)
system.iobus.reqLayer12.utilization               0.0                       # Layer utilization (%)
system.iobus.reqLayer17.occupancy              817498                       # Layer occupancy (ticks)
system.iobus.reqLayer17.utilization               0.0                       # Layer utilization (%)
system.iobus.reqLayer18.occupancy              921500                       # Layer occupancy (ticks)
system.iobus.reqLayer18.utilization               0.0                       # Layer utilization (%)
system.iobus.reqLayer19.occupancy              989703                       # Layer occupancy (ticks)
system.iobus.reqLayer19.utilization               0.0                       # Layer utilization (%)
system.iobus.reqLayer20.occupancy              907500                       # Layer occupancy (ticks)
system.iobus.reqLayer20.utilization               0.0                       # Layer utilization (%)
system.iobus.respLayer0.occupancy                7000                       # Layer occupancy (ticks)
system.iobus.respLayer0.utilization               0.0                       # Layer utilization (%)
system.iobus.respLayer2.occupancy             2086500                       # Layer occupancy (ticks)
system.iobus.respLayer2.utilization               0.0                       # Layer utilization (%)
system.iobus.respLayer4.occupancy              679500                       # Layer occupancy (ticks)
system.iobus.respLayer4.utilization               0.0                       # Layer utilization (%)
system.iobus.respLayer6.occupancy              580500                       # Layer occupancy (ticks)
system.iobus.respLayer6.utilization               0.0                       # Layer utilization (%)
system.iobus.respLayer8.occupancy              560000                       # Layer occupancy (ticks)
system.iobus.respLayer8.utilization               0.0                       # Layer utilization (%)
system.pc.south_bridge.ide.disks.dma_read_full_pages            0                       # Number of full page size DMA reads (not PRD).
system.pc.south_bridge.ide.disks.dma_read_bytes            0                       # Number of bytes transfered via DMA reads (not PRD).
system.pc.south_bridge.ide.disks.dma_read_txs            0                       # Number of DMA read transactions (not PRD).
system.pc.south_bridge.ide.disks.dma_write_full_pages            0                       # Number of full page size DMA writes.
system.pc.south_bridge.ide.disks.dma_write_bytes            0                       # Number of bytes transfered via DMA writes.
system.pc.south_bridge.ide.disks.dma_write_txs            0                       # Number of DMA write transactions.
system.ruby.clk_domain.clock                      500                       # Clock period in ticks
system.ruby.delayHist::bucket_size                  2                       # delay histogram for all message
system.ruby.delayHist::max_bucket                  19                       # delay histogram for all message
system.ruby.delayHist::samples               14842974                       # delay histogram for all message
system.ruby.delayHist::mean                  0.002219                       # delay histogram for all message
system.ruby.delayHist::stdev                 0.125697                       # delay histogram for all message
system.ruby.delayHist                    |    14837759     99.96%     99.96% |         676      0.00%     99.97% |         671      0.00%     99.97% |        1139      0.01%     99.98% |        2691      0.02%    100.00% |          10      0.00%    100.00% |           4      0.00%    100.00% |           8      0.00%    100.00% |           6      0.00%    100.00% |          10      0.00%    100.00% # delay histogram for all message
system.ruby.delayHist::total                 14842974                       # delay histogram for all message
system.ruby.outstanding_req_hist_seqr::bucket_size            1                      
system.ruby.outstanding_req_hist_seqr::max_bucket            9                      
system.ruby.outstanding_req_hist_seqr::samples    937482638                      
system.ruby.outstanding_req_hist_seqr::mean     1.000000                      
system.ruby.outstanding_req_hist_seqr::gmean     1.000000                      
system.ruby.outstanding_req_hist_seqr::stdev     0.000508                      
system.ruby.outstanding_req_hist_seqr    |           0      0.00%      0.00% |   937482396    100.00%    100.00% |         242      0.00%    100.00% |           0      0.00%    100.00% |           0      0.00%    100.00% |           0      0.00%    100.00% |           0      0.00%    100.00% |           0      0.00%    100.00% |           0      0.00%    100.00% |           0      0.00%    100.00%
system.ruby.outstanding_req_hist_seqr::total    937482638                      
system.ruby.latency_hist_seqr::bucket_size          256                      
system.ruby.latency_hist_seqr::max_bucket         2559                      
system.ruby.latency_hist_seqr::samples      937482638                      
system.ruby.latency_hist_seqr::mean          2.117212                      
system.ruby.latency_hist_seqr::gmean         1.039208                      
system.ruby.latency_hist_seqr::stdev        14.372851                      
system.ruby.latency_hist_seqr            |   936959712     99.94%     99.94% |      441646      0.05%     99.99% |       76516      0.01%    100.00% |        3963      0.00%    100.00% |         779      0.00%    100.00% |          21      0.00%    100.00% |           1      0.00%    100.00% |           0      0.00%    100.00% |           0      0.00%    100.00% |           0      0.00%    100.00%
system.ruby.latency_hist_seqr::total        937482638                      
system.ruby.hit_latency_hist_seqr::bucket_size            1                      
system.ruby.hit_latency_hist_seqr::max_bucket            9                      
system.ruby.hit_latency_hist_seqr::samples    930061164                      
system.ruby.hit_latency_hist_seqr::mean             1                      
[...]
system.ruby.LD.L1Cache.miss_type_mach_latency_hist_seqr |           0      0.00%      0.00% |      131640    100.00%    100.00% |           0      0.00%    100.00% |           2      0.00%    100.00% |           0      0.00%    100.00% |           3      0.00%    100.00% |           0      0.00%    100.00% |           0      0.00%    100.00% |           0      0.00%    100.00% |           0      0.00%    100.00%
system.ruby.LD.L1Cache.miss_type_mach_latency_hist_seqr::total       131645                      
system.ruby.LD.Directory.miss_type_mach_latency_hist_seqr::bucket_size          256                      
system.ruby.LD.Directory.miss_type_mach_latency_hist_seqr::max_bucket         2559                      
system.ruby.LD.Directory.miss_type_mach_latency_hist_seqr::samples      7175142                      
system.ruby.LD.Directory.miss_type_mach_latency_hist_seqr::mean   135.037064                      
system.ruby.LD.Directory.miss_type_mach_latency_hist_seqr::gmean   122.803188                      
system.ruby.LD.Directory.miss_type_mach_latency_hist_seqr::stdev    81.560541                      
system.ruby.LD.Directory.miss_type_mach_latency_hist_seqr |     6629805     92.40%     92.40% |      459823      6.41%     98.81% |       80997      1.13%     99.94% |        3847      0.05%     99.99% |         652      0.01%    100.00% |          18      0.00%    100.00% |           0      0.00%    100.00% |           0      0.00%    100.00% |           0      0.00%    100.00% |           0      0.00%    100.00%
system.ruby.LD.Directory.miss_type_mach_latency_hist_seqr::total      7175142                      
system.ruby.ST.L1Cache.miss_type_mach_latency_hist_seqr::bucket_size            8                      
system.ruby.ST.L1Cache.miss_type_mach_latency_hist_seqr::max_bucket           79                      
system.ruby.ST.L1Cache.miss_type_mach_latency_hist_seqr::samples         3154                      
system.ruby.ST.L1Cache.miss_type_mach_latency_hist_seqr::mean    46.384908                      
system.ruby.ST.L1Cache.miss_type_mach_latency_hist_seqr::gmean    46.343786                      
system.ruby.ST.L1Cache.miss_type_mach_latency_hist_seqr::stdev     1.980617                      
system.ruby.ST.L1Cache.miss_type_mach_latency_hist_seqr |           0      0.00%      0.00% |           0      0.00%      0.00% |           0      0.00%      0.00% |           0      0.00%      0.00% |           0      0.00%      0.00% |        2089     66.23%     66.23% |        1061     33.64%     99.87% |           4      0.13%    100.00% |           0      0.00%    100.00% |           0      0.00%    100.00%
system.ruby.ST.L1Cache.miss_type_mach_latency_hist_seqr::total         3154                      
system.ruby.ST.Directory.miss_type_mach_latency_hist_seqr::bucket_size          256                      
system.ruby.ST.Directory.miss_type_mach_latency_hist_seqr::max_bucket         2559                      
system.ruby.ST.Directory.miss_type_mach_latency_hist_seqr::samples      6894005                      
system.ruby.ST.Directory.miss_type_mach_latency_hist_seqr::mean   157.737575                      
system.ruby.ST.Directory.miss_type_mach_latency_hist_seqr::gmean   147.759765                      
system.ruby.ST.Directory.miss_type_mach_latency_hist_seqr::stdev    73.768948                      
system.ruby.ST.Directory.miss_type_mach_latency_hist_seqr |     6404933     92.91%     92.91% |      414759      6.02%     98.92% |       69517      1.01%     99.93% |        3913      0.06%     99.99% |         865      0.01%    100.00% |          16      0.00%    100.00% |           2      0.00%    100.00% |           0      0.00%    100.00% |           0      0.00%    100.00% |           0      0.00%    100.00%
system.ruby.ST.Directory.miss_type_mach_latency_hist_seqr::total      6894005                      
system.ruby.IFETCH.L1Cache.miss_type_mach_latency_hist_seqr::bucket_size           16                      
system.ruby.IFETCH.L1Cache.miss_type_mach_latency_hist_seqr::max_bucket          159                      
system.ruby.IFETCH.L1Cache.miss_type_mach_latency_hist_seqr::samples       527674                      
system.ruby.IFETCH.L1Cache.miss_type_mach_latency_hist_seqr::mean    45.791599                      
system.ruby.IFETCH.L1Cache.miss_type_mach_latency_hist_seqr::gmean    45.763378                      
system.ruby.IFETCH.L1Cache.miss_type_mach_latency_hist_seqr::stdev     1.642699                      
system.ruby.IFETCH.L1Cache.miss_type_mach_latency_hist_seqr |           0      0.00%      0.00% |           0      0.00%      0.00% |      428057     81.12%     81.12% |       99614     18.88%    100.00% |           2      0.00%    100.00% |           1      0.00%    100.00% |           0      0.00%    100.00% |           0      0.00%    100.00% |           0      0.00%    100.00% |           0      0.00%    100.00%
system.ruby.IFETCH.L1Cache.miss_type_mach_latency_hist_seqr::total       527674                      
system.ruby.IFETCH.Directory.miss_type_mach_latency_hist_seqr::bucket_size          256                      
system.ruby.IFETCH.Directory.miss_type_mach_latency_hist_seqr::max_bucket         2559                      
system.ruby.IFETCH.Directory.miss_type_mach_latency_hist_seqr::samples       353629                      
system.ruby.IFETCH.Directory.miss_type_mach_latency_hist_seqr::mean   132.646358                      
system.ruby.IFETCH.Directory.miss_type_mach_latency_hist_seqr::gmean   119.203675                      
system.ruby.IFETCH.Directory.miss_type_mach_latency_hist_seqr::stdev    82.174243                      
system.ruby.IFETCH.Directory.miss_type_mach_latency_hist_seqr |      330422     93.44%     93.44% |       18850      5.33%     98.77% |        4045      1.14%     99.91% |         266      0.08%     99.99% |          40      0.01%    100.00% |           6      0.00%    100.00% |           0      0.00%    100.00% |           0      0.00%    100.00% |           0      0.00%    100.00% |           0      0.00%    100.00%
system.ruby.IFETCH.Directory.miss_type_mach_latency_hist_seqr::total       353629                      
system.ruby.RMW_Read.L1Cache.miss_type_mach_latency_hist_seqr::bucket_size            8                      
system.ruby.RMW_Read.L1Cache.miss_type_mach_latency_hist_seqr::max_bucket           79                      
system.ruby.RMW_Read.L1Cache.miss_type_mach_latency_hist_seqr::samples         1261                      
system.ruby.RMW_Read.L1Cache.miss_type_mach_latency_hist_seqr::mean    45.347343                      
system.ruby.RMW_Read.L1Cache.miss_type_mach_latency_hist_seqr::gmean    45.331601                      
system.ruby.RMW_Read.L1Cache.miss_type_mach_latency_hist_seqr::stdev     1.239516                      
system.ruby.RMW_Read.L1Cache.miss_type_mach_latency_hist_seqr |           0      0.00%      0.00% |           0      0.00%      0.00% |           0      0.00%      0.00% |           0      0.00%      0.00% |           0      0.00%      0.00% |        1172     92.94%     92.94% |          88      6.98%     99.92% |           1      0.08%    100.00% |           0      0.00%    100.00% |           0      0.00%    100.00%
system.ruby.RMW_Read.L1Cache.miss_type_mach_latency_hist_seqr::total         1261                      
system.ruby.RMW_Read.Directory.miss_type_mach_latency_hist_seqr::bucket_size          128                      
system.ruby.RMW_Read.Directory.miss_type_mach_latency_hist_seqr::max_bucket         1279                      
system.ruby.RMW_Read.Directory.miss_type_mach_latency_hist_seqr::samples        14512                      
system.ruby.RMW_Read.Directory.miss_type_mach_latency_hist_seqr::mean   143.373002                      
system.ruby.RMW_Read.Directory.miss_type_mach_latency_hist_seqr::gmean   128.531597                      
system.ruby.RMW_Read.Directory.miss_type_mach_latency_hist_seqr::stdev    84.199100                      
system.ruby.RMW_Read.Directory.miss_type_mach_latency_hist_seqr |        8956     61.71%     61.71% |        4401     30.33%     92.04% |         799      5.51%     97.55% |         167      1.15%     98.70% |         137      0.94%     99.64% |          40      0.28%     99.92% |           6      0.04%     99.96% |           4      0.03%     99.99% |           2      0.01%    100.00% |           0      0.00%    100.00%
system.ruby.RMW_Read.Directory.miss_type_mach_latency_hist_seqr::total        14512                      
system.ruby.Locked_RMW_Read.L1Cache.miss_type_mach_latency_hist_seqr::bucket_size            8                      
system.ruby.Locked_RMW_Read.L1Cache.miss_type_mach_latency_hist_seqr::max_bucket           79                      
system.ruby.Locked_RMW_Read.L1Cache.miss_type_mach_latency_hist_seqr::samples         4287                      
system.ruby.Locked_RMW_Read.L1Cache.miss_type_mach_latency_hist_seqr::mean    46.003965                      
system.ruby.Locked_RMW_Read.L1Cache.miss_type_mach_latency_hist_seqr::gmean    45.972075                      
system.ruby.Locked_RMW_Read.L1Cache.miss_type_mach_latency_hist_seqr::stdev     1.738433                      
system.ruby.Locked_RMW_Read.L1Cache.miss_type_mach_latency_hist_seqr |           0      0.00%      0.00% |           0      0.00%      0.00% |           0      0.00%      0.00% |           0      0.00%      0.00% |           0      0.00%      0.00% |        3225     75.23%     75.23% |        1062     24.77%    100.00% |           0      0.00%    100.00% |           0      0.00%    100.00% |           0      0.00%    100.00%
system.ruby.Locked_RMW_Read.L1Cache.miss_type_mach_latency_hist_seqr::total         4287                      
system.ruby.Locked_RMW_Read.Directory.miss_type_mach_latency_hist_seqr::bucket_size          256                      
system.ruby.Locked_RMW_Read.Directory.miss_type_mach_latency_hist_seqr::max_bucket         2559                      
system.ruby.Locked_RMW_Read.Directory.miss_type_mach_latency_hist_seqr::samples        27465                      
system.ruby.Locked_RMW_Read.Directory.miss_type_mach_latency_hist_seqr::mean   147.054906                      
system.ruby.Locked_RMW_Read.Directory.miss_type_mach_latency_hist_seqr::gmean   135.005316                      
system.ruby.Locked_RMW_Read.Directory.miss_type_mach_latency_hist_seqr::stdev    82.319476                      
system.ruby.Locked_RMW_Read.Directory.miss_type_mach_latency_hist_seqr |       25230     91.86%     91.86% |        1893      6.89%     98.75% |         318      1.16%     99.91% |          22      0.08%     99.99% |           0      0.00%     99.99% |           2      0.01%    100.00% |           0      0.00%    100.00% |           0      0.00%    100.00% |           0      0.00%    100.00% |           0      0.00%    100.00%
system.ruby.Locked_RMW_Read.Directory.miss_type_mach_latency_hist_seqr::total        27465                      
system.ruby.Directory_Controller.GETX         7711355      0.00%      0.00%
system.ruby.Directory_Controller.PUTX         7327580      0.00%      0.00%
system.ruby.Directory_Controller.DMA_READ            2      0.00%      0.00%
system.ruby.Directory_Controller.DMA_WRITE          128      0.00%      0.00%
system.ruby.Directory_Controller.Memory_Data      7327496      0.00%      0.00%
system.ruby.Directory_Controller.Memory_Ack      7327708      0.00%      0.00%
system.ruby.Directory_Controller.I.GETX       7327496      0.00%      0.00%
system.ruby.Directory_Controller.I.DMA_WRITE          128      0.00%      0.00%
system.ruby.Directory_Controller.M.GETX        383804      0.00%      0.00%
system.ruby.Directory_Controller.M.PUTX       7327578      0.00%      0.00%
system.ruby.Directory_Controller.M.DMA_READ            2      0.00%      0.00%
system.ruby.Directory_Controller.M_DRD.PUTX            2      0.00%      0.00%
system.ruby.Directory_Controller.M_DRDI.Memory_Ack            2      0.00%      0.00%
system.ruby.Directory_Controller.IM.GETX           53      0.00%      0.00%
system.ruby.Directory_Controller.IM.Memory_Data      7327496      0.00%      0.00%
system.ruby.Directory_Controller.MI.GETX            2      0.00%      0.00%
system.ruby.Directory_Controller.MI.Memory_Ack      7327578      0.00%      0.00%
system.ruby.Directory_Controller.ID_W.Memory_Ack          128      0.00%      0.00%
system.ruby.DMA_Controller.ReadRequest   |           2    100.00%    100.00% |           0      0.00%    100.00%
system.ruby.DMA_Controller.ReadRequest::total            2                      
system.ruby.DMA_Controller.WriteRequest  |         128    100.00%    100.00% |           0      0.00%    100.00%
system.ruby.DMA_Controller.WriteRequest::total          128                      
system.ruby.DMA_Controller.Data          |           2    100.00%    100.00% |           0      0.00%    100.00%
system.ruby.DMA_Controller.Data::total              2                      
system.ruby.DMA_Controller.Ack           |         128    100.00%    100.00% |           0      0.00%    100.00%
system.ruby.DMA_Controller.Ack::total             128                      
system.ruby.DMA_Controller.READY.ReadRequest |           2    100.00%    100.00% |           0      0.00%    100.00%
system.ruby.DMA_Controller.READY.ReadRequest::total            2                      
system.ruby.DMA_Controller.READY.WriteRequest |         128    100.00%    100.00% |           0      0.00%    100.00%
system.ruby.DMA_Controller.READY.WriteRequest::total          128                      
system.ruby.DMA_Controller.BUSY_RD.Data  |           2    100.00%    100.00% |           0      0.00%    100.00%
system.ruby.DMA_Controller.BUSY_RD.Data::total            2                      
system.ruby.DMA_Controller.BUSY_WR.Ack   |         128    100.00%    100.00% |           0      0.00%    100.00%
system.ruby.DMA_Controller.BUSY_WR.Ack::total          128                      
system.ruby.L1Cache_Controller.Load      |     2552821      2.28%      2.28% |      501689      0.45%      2.72% |   108232926     96.51%     99.23% |      863597      0.77%    100.00%
system.ruby.L1Cache_Controller.Load::total    112151033                      
system.ruby.L1Cache_Controller.Ifetch    |    15155667      1.92%      1.92% |     2276129      0.29%      2.21% |   766071428     97.25%     99.46% |     4263216      0.54%    100.00%
system.ruby.L1Cache_Controller.Ifetch::total    787766440                      
system.ruby.L1Cache_Controller.Store     |     1959902      3.17%      3.17% |      353612      0.57%      3.74% |    58856234     95.16%     98.90% |      680520      1.10%    100.00%
system.ruby.L1Cache_Controller.Store::total     61850268                      
system.ruby.L1Cache_Controller.Data      |      242680      3.15%      3.15% |      127240      1.65%      4.80% |     7179677     93.11%     97.90% |      161703      2.10%    100.00%
system.ruby.L1Cache_Controller.Data::total      7711300                      
system.ruby.L1Cache_Controller.Fwd_GETX  |      115639     30.13%     30.13% |      112442     29.30%     59.43% |       37871      9.87%     69.29% |      117852     30.71%    100.00%
system.ruby.L1Cache_Controller.Fwd_GETX::total       383804                      
system.ruby.L1Cache_Controller.Inv       |           0      0.00%      0.00% |           0      0.00%      0.00% |           4    100.00%    100.00% |           0      0.00%    100.00%
system.ruby.L1Cache_Controller.Inv::total            4                      
system.ruby.L1Cache_Controller.Replacement |      132481      1.80%      1.80% |       19164      0.26%      2.06% |     7160051     97.26%     99.32% |       49773      0.68%    100.00%
system.ruby.L1Cache_Controller.Replacement::total      7361469                      
system.ruby.L1Cache_Controller.Writeback_Ack |      127045      1.73%      1.73% |       14963      0.20%      1.94% |     7141738     97.46%     99.40% |       43834      0.60%    100.00%
system.ruby.L1Cache_Controller.Writeback_Ack::total      7327580                      
system.ruby.L1Cache_Controller.I.Load    |       99723      2.69%      2.69% |       28805      0.78%      3.47% |     3539789     95.44%     98.91% |       40523      1.09%    100.00%
system.ruby.L1Cache_Controller.I.Load::total      3708840                      
system.ruby.L1Cache_Controller.I.Ifetch  |      110432     21.86%     21.86% |       92467     18.31%     40.17% |      194730     38.55%     78.73% |      107456     21.27%    100.00%
system.ruby.L1Cache_Controller.I.Ifetch::total       505085                      
system.ruby.L1Cache_Controller.I.Store   |       32525      0.93%      0.93% |        5968      0.17%      1.10% |     3445158     98.51%     99.61% |       13724      0.39%    100.00%
system.ruby.L1Cache_Controller.I.Store::total      3497375                      
system.ruby.L1Cache_Controller.I.Replacement |        5436     16.04%     16.04% |        4201     12.40%     28.44% |       18315     54.04%     82.48% |        5939     17.52%    100.00%
system.ruby.L1Cache_Controller.I.Replacement::total        33891                      
system.ruby.L1Cache_Controller.M.Load    |     2453098      2.26%      2.26% |      472884      0.44%      2.70% |   104693137     96.54%     99.24% |      823074      0.76%    100.00%
system.ruby.L1Cache_Controller.M.Load::total    108442193                      
system.ruby.L1Cache_Controller.M.Ifetch  |    15045235      1.91%      1.91% |     2183662      0.28%      2.19% |   765876698     97.28%     99.47% |     4155760      0.53%    100.00%
system.ruby.L1Cache_Controller.M.Ifetch::total    787261355                      
system.ruby.L1Cache_Controller.M.Store   |     1927377      3.30%      3.30% |      347644      0.60%      3.90% |    55411076     94.96%     98.86% |      666796      1.14%    100.00%
system.ruby.L1Cache_Controller.M.Store::total     58352893                      
system.ruby.L1Cache_Controller.M.Fwd_GETX |      115639     30.13%     30.13% |      112442     29.30%     59.43% |       37871      9.87%     69.29% |      117852     30.71%    100.00%
system.ruby.L1Cache_Controller.M.Fwd_GETX::total       383804                      
system.ruby.L1Cache_Controller.M.Inv     |           0      0.00%      0.00% |           0      0.00%      0.00% |           2    100.00%    100.00% |           0      0.00%    100.00%
system.ruby.L1Cache_Controller.M.Inv::total            2                      
system.ruby.L1Cache_Controller.M.Replacement |      127045      1.73%      1.73% |       14963      0.20%      1.94% |     7141736     97.46%     99.40% |       43834      0.60%    100.00%
system.ruby.L1Cache_Controller.M.Replacement::total      7327578                      
system.ruby.L1Cache_Controller.MI.Inv    |           0      0.00%      0.00% |           0      0.00%      0.00% |           2    100.00%    100.00% |           0      0.00%    100.00%
system.ruby.L1Cache_Controller.MI.Inv::total            2                      
system.ruby.L1Cache_Controller.MI.Writeback_Ack |      127045      1.73%      1.73% |       14963      0.20%      1.94% |     7141738     97.46%     99.40% |       43834      0.60%    100.00%
system.ruby.L1Cache_Controller.MI.Writeback_Ack::total      7327580                      
system.ruby.L1Cache_Controller.IS.Data   |      210155      4.99%      4.99% |      121272      2.88%      7.87% |     3734519     88.62%     96.49% |      147979      3.51%    100.00%
system.ruby.L1Cache_Controller.IS.Data::total      4213925                      
system.ruby.L1Cache_Controller.IM.Data   |       32525      0.93%      0.93% |        5968      0.17%      1.10% |     3445158     98.51%     99.61% |       13724      0.39%    100.00%
system.ruby.L1Cache_Controller.IM.Data::total      3497375                      

---------- End Simulation Statistics   ----------
