
---------- Begin Simulation Statistics ----------
sim_seconds                                  1.136915                       # Number of seconds simulated
sim_ticks                                1136914842500                       # Number of ticks simulated
final_tick                               53560218522501                       # Number of ticks from beginning of simulation (restored from checkpoints and never reset)
sim_freq                                 1000000000000                       # Frequency of simulated ticks
host_inst_rate                                 123820                       # Simulator instruction rate (inst/s)
host_op_rate                                   165639                       # Simulator op (including micro ops) rate (op/s)
host_tick_rate                              260024790                       # Simulator tick rate (ticks/s)
host_mem_usage                                1780472                       # Number of bytes of host memory used
host_seconds                                  4372.33                       # Real time elapsed on the host
sim_insts                                   541383690                       # Number of instructions simulated
sim_ops                                     724229467                       # Number of ops (including micro ops) simulated
system.voltage_domain.voltage                       1                       # Voltage in Volts
system.clk_domain.clock                          1000                       # Clock period in ticks
system.mem_ctrls.bytes_read::ruby.dir_cntrl0    170371520                       # Number of bytes read from this memory
system.mem_ctrls.bytes_read::total          170371520                       # Number of bytes read from this memory
system.mem_ctrls.bytes_written::ruby.dir_cntrl0    101678464                       # Number of bytes written to this memory
system.mem_ctrls.bytes_written::total       101678464                       # Number of bytes written to this memory
system.mem_ctrls.num_reads::ruby.dir_cntrl0      2662055                       # Number of read requests responded to by this memory
system.mem_ctrls.num_reads::total             2662055                       # Number of read requests responded to by this memory
system.mem_ctrls.num_writes::ruby.dir_cntrl0      1588726                       # Number of write requests responded to by this memory
system.mem_ctrls.num_writes::total            1588726                       # Number of write requests responded to by this memory
system.mem_ctrls.bw_read::ruby.dir_cntrl0    149854249                       # Total read bandwidth from this memory (bytes/s)
system.mem_ctrls.bw_read::total             149854249                       # Total read bandwidth from this memory (bytes/s)
system.mem_ctrls.bw_write::ruby.dir_cntrl0     89433668                       # Write bandwidth from this memory (bytes/s)
system.mem_ctrls.bw_write::total             89433668                       # Write bandwidth from this memory (bytes/s)
system.mem_ctrls.bw_total::ruby.dir_cntrl0    239287917                       # Total bandwidth to/from this memory (bytes/s)
system.mem_ctrls.bw_total::total            239287917                       # Total bandwidth to/from this memory (bytes/s)
system.mem_ctrls.readReqs                     2662055                       # Number of read requests accepted
system.mem_ctrls.writeReqs                    1588726                       # Number of write requests accepted
system.mem_ctrls.readBursts                   2662055                       # Number of DRAM read bursts, including those serviced by the write queue
system.mem_ctrls.writeBursts                  1588726                       # Number of DRAM write bursts, including those merged in the write queue
system.mem_ctrls.bytesReadDRAM              170271104                       # Total number of bytes read from DRAM
system.mem_ctrls.bytesReadWrQ                  100416                       # Total number of bytes read from write queue
system.mem_ctrls.bytesWritten               101677824                       # Total number of bytes written to DRAM
system.mem_ctrls.bytesReadSys               170371520                       # Total read bytes from the system interface side
system.mem_ctrls.bytesWrittenSys            101678464                       # Total written bytes from the system interface side
system.mem_ctrls.servicedByWrQ                   1569                       # Number of DRAM read bursts serviced by the write queue
system.mem_ctrls.mergedWrBursts                     0                       # Number of DRAM write bursts merged with an existing one
system.mem_ctrls.neitherReadNorWriteReqs            0                       # Number of requests that are neither read nor write
system.mem_ctrls.perBankRdBursts::0            166756                       # Per bank write bursts
system.mem_ctrls.perBankRdBursts::1            166675                       # Per bank write bursts
system.mem_ctrls.perBankRdBursts::2            166305                       # Per bank write bursts
system.mem_ctrls.perBankRdBursts::3            166368                       # Per bank write bursts
system.mem_ctrls.perBankRdBursts::4            165370                       # Per bank write bursts
system.mem_ctrls.perBankRdBursts::5            165138                       # Per bank write bursts
system.mem_ctrls.perBankRdBursts::6            166835                       # Per bank write bursts
system.mem_ctrls.perBankRdBursts::7            165912                       # Per bank write bursts
system.mem_ctrls.perBankRdBursts::8            165655                       # Per bank write bursts
system.mem_ctrls.perBankRdBursts::9            165882                       # Per bank write bursts
system.mem_ctrls.perBankRdBursts::10           166243                       # Per bank write bursts
system.mem_ctrls.perBankRdBursts::11           165366                       # Per bank write bursts
system.mem_ctrls.perBankRdBursts::12           167473                       # Per bank write bursts
system.mem_ctrls.perBankRdBursts::13           167814                       # Per bank write bursts
system.mem_ctrls.perBankRdBursts::14           166157                       # Per bank write bursts
system.mem_ctrls.perBankRdBursts::15           166537                       # Per bank write bursts
system.mem_ctrls.perBankWrBursts::0             99454                       # Per bank write bursts
system.mem_ctrls.perBankWrBursts::1             99697                       # Per bank write bursts
system.mem_ctrls.perBankWrBursts::2             99774                       # Per bank write bursts
system.mem_ctrls.perBankWrBursts::3             99414                       # Per bank write bursts
system.mem_ctrls.perBankWrBursts::4             98405                       # Per bank write bursts
system.mem_ctrls.perBankWrBursts::5             98547                       # Per bank write bursts
system.mem_ctrls.perBankWrBursts::6             99800                       # Per bank write bursts
system.mem_ctrls.perBankWrBursts::7             99162                       # Per bank write bursts
system.mem_ctrls.perBankWrBursts::8             99283                       # Per bank write bursts
system.mem_ctrls.perBankWrBursts::9             99512                       # Per bank write bursts
system.mem_ctrls.perBankWrBursts::10            99720                       # Per bank write bursts
system.mem_ctrls.perBankWrBursts::11            99055                       # Per bank write bursts
system.mem_ctrls.perBankWrBursts::12            99875                       # Per bank write bursts
system.mem_ctrls.perBankWrBursts::13            99989                       # Per bank write bursts
system.mem_ctrls.perBankWrBursts::14            98227                       # Per bank write bursts
system.mem_ctrls.perBankWrBursts::15            98802                       # Per bank write bursts
system.mem_ctrls.numRdRetry                         0                       # Number of times read queue was full causing retry
system.mem_ctrls.numWrRetry                         0                       # Number of times write queue was full causing retry
system.mem_ctrls.totGap                  1136914777500                       # Total gap between requests
system.mem_ctrls.readPktSize::0                     0                       # Read request sizes (log2)
system.mem_ctrls.readPktSize::1                     0                       # Read request sizes (log2)
system.mem_ctrls.readPktSize::2                     0                       # Read request sizes (log2)
system.mem_ctrls.readPktSize::3                     0                       # Read request sizes (log2)
system.mem_ctrls.readPktSize::4                     0                       # Read request sizes (log2)
system.mem_ctrls.readPktSize::5                     0                       # Read request sizes (log2)
system.mem_ctrls.readPktSize::6               2662055                       # Read request sizes (log2)
system.mem_ctrls.writePktSize::0                    0                       # Write request sizes (log2)
system.mem_ctrls.writePktSize::1                    0                       # Write request sizes (log2)
system.mem_ctrls.writePktSize::2                    0                       # Write request sizes (log2)
system.mem_ctrls.writePktSize::3                    0                       # Write request sizes (log2)
system.mem_ctrls.writePktSize::4                    0                       # Write request sizes (log2)
system.mem_ctrls.writePktSize::5                    0                       # Write request sizes (log2)
system.mem_ctrls.writePktSize::6              1588726                       # Write request sizes (log2)
system.mem_ctrls.rdQLenPdf::0                 2659961                       # What read queue length does an incoming req see
system.mem_ctrls.rdQLenPdf::1                     525                       # What read queue length does an incoming req see
system.mem_ctrls.rdQLenPdf::2                       0                       # What read queue length does an incoming req see
system.mem_ctrls.rdQLenPdf::3                       0                       # What read queue length does an incoming req see
system.mem_ctrls.rdQLenPdf::4                       0                       # What read queue length does an incoming req see
system.mem_ctrls.rdQLenPdf::5                       0                       # What read queue length does an incoming req see
system.mem_ctrls.rdQLenPdf::6                       0                       # What read queue length does an incoming req see
system.mem_ctrls.rdQLenPdf::7                       0                       # What read queue length does an incoming req see
system.mem_ctrls.rdQLenPdf::8                       0                       # What read queue length does an incoming req see
system.mem_ctrls.rdQLenPdf::9                       0                       # What read queue length does an incoming req see
system.mem_ctrls.rdQLenPdf::10                      0                       # What read queue length does an incoming req see
system.mem_ctrls.rdQLenPdf::11                      0                       # What read queue length does an incoming req see
system.mem_ctrls.rdQLenPdf::12                      0                       # What read queue length does an incoming req see
system.mem_ctrls.rdQLenPdf::13                      0                       # What read queue length does an incoming req see
system.mem_ctrls.rdQLenPdf::14                      0                       # What read queue length does an incoming req see
system.mem_ctrls.rdQLenPdf::15                      0                       # What read queue length does an incoming req see
system.mem_ctrls.rdQLenPdf::16                      0                       # What read queue length does an incoming req see
system.mem_ctrls.rdQLenPdf::17                      0                       # What read queue length does an incoming req see
system.mem_ctrls.rdQLenPdf::18                      0                       # What read queue length does an incoming req see
system.mem_ctrls.rdQLenPdf::19                      0                       # What read queue length does an incoming req see
system.mem_ctrls.rdQLenPdf::20                      0                       # What read queue length does an incoming req see
system.mem_ctrls.rdQLenPdf::21                      0                       # What read queue length does an incoming req see
system.mem_ctrls.rdQLenPdf::22                      0                       # What read queue length does an incoming req see
system.mem_ctrls.rdQLenPdf::23                      0                       # What read queue length does an incoming req see
system.mem_ctrls.rdQLenPdf::24                      0                       # What read queue length does an incoming req see
system.mem_ctrls.rdQLenPdf::25                      0                       # What read queue length does an incoming req see
system.mem_ctrls.rdQLenPdf::26                      0                       # What read queue length does an incoming req see
system.mem_ctrls.rdQLenPdf::27                      0                       # What read queue length does an incoming req see
system.mem_ctrls.rdQLenPdf::28                      0                       # What read queue length does an incoming req see
system.mem_ctrls.rdQLenPdf::29                      0                       # What read queue length does an incoming req see
system.mem_ctrls.rdQLenPdf::30                      0                       # What read queue length does an incoming req see
system.mem_ctrls.rdQLenPdf::31                      0                       # What read queue length does an incoming req see
system.mem_ctrls.wrQLenPdf::0                       0                       # What write queue length does an incoming req see
system.mem_ctrls.wrQLenPdf::1                       0                       # What write queue length does an incoming req see
system.mem_ctrls.wrQLenPdf::2                       0                       # What write queue length does an incoming req see
system.mem_ctrls.wrQLenPdf::3                       0                       # What write queue length does an incoming req see
system.mem_ctrls.wrQLenPdf::4                       0                       # What write queue length does an incoming req see
system.mem_ctrls.wrQLenPdf::5                       0                       # What write queue length does an incoming req see
system.mem_ctrls.wrQLenPdf::6                       0                       # What write queue length does an incoming req see
system.mem_ctrls.wrQLenPdf::7                       0                       # What write queue length does an incoming req see
system.mem_ctrls.wrQLenPdf::8                       0                       # What write queue length does an incoming req see
system.mem_ctrls.wrQLenPdf::9                       0                       # What write queue length does an incoming req see
system.mem_ctrls.wrQLenPdf::10                      0                       # What write queue length does an incoming req see
system.mem_ctrls.wrQLenPdf::11                      0                       # What write queue length does an incoming req see
system.mem_ctrls.wrQLenPdf::12                      0                       # What write queue length does an incoming req see
system.mem_ctrls.wrQLenPdf::13                      0                       # What write queue length does an incoming req see
system.mem_ctrls.wrQLenPdf::14                      0                       # What write queue length does an incoming req see
system.mem_ctrls.wrQLenPdf::15                  31155                       # What write queue length does an incoming req see
system.mem_ctrls.wrQLenPdf::16                  34090                       # What write queue length does an incoming req see
system.mem_ctrls.wrQLenPdf::17                  71472                       # What write queue length does an incoming req see
system.mem_ctrls.wrQLenPdf::18                  92196                       # What write queue length does an incoming req see
system.mem_ctrls.wrQLenPdf::19                  96537                       # What write queue length does an incoming req see
system.mem_ctrls.wrQLenPdf::20                  97165                       # What write queue length does an incoming req see
system.mem_ctrls.wrQLenPdf::21                  97218                       # What write queue length does an incoming req see
system.mem_ctrls.wrQLenPdf::22                  97524                       # What write queue length does an incoming req see
system.mem_ctrls.wrQLenPdf::23                  97638                       # What write queue length does an incoming req see
system.mem_ctrls.wrQLenPdf::24                  97789                       # What write queue length does an incoming req see
system.mem_ctrls.wrQLenPdf::25                  97636                       # What write queue length does an incoming req see
system.mem_ctrls.wrQLenPdf::26                  98559                       # What write queue length does an incoming req see
system.mem_ctrls.wrQLenPdf::27                  98456                       # What write queue length does an incoming req see
system.mem_ctrls.wrQLenPdf::28                  97829                       # What write queue length does an incoming req see
system.mem_ctrls.wrQLenPdf::29                  97073                       # What write queue length does an incoming req see
system.mem_ctrls.wrQLenPdf::30                  95593                       # What write queue length does an incoming req see
system.mem_ctrls.wrQLenPdf::31                  94816                       # What write queue length does an incoming req see
system.mem_ctrls.wrQLenPdf::32                  95506                       # What write queue length does an incoming req see
system.mem_ctrls.wrQLenPdf::33                    332                       # What write queue length does an incoming req see
system.mem_ctrls.wrQLenPdf::34                     76                       # What write queue length does an incoming req see
system.mem_ctrls.wrQLenPdf::35                     26                       # What write queue length does an incoming req see
system.mem_ctrls.wrQLenPdf::36                     12                       # What write queue length does an incoming req see
system.mem_ctrls.wrQLenPdf::37                      9                       # What write queue length does an incoming req see
system.mem_ctrls.wrQLenPdf::38                      5                       # What write queue length does an incoming req see
system.mem_ctrls.wrQLenPdf::39                      3                       # What write queue length does an incoming req see
system.mem_ctrls.wrQLenPdf::40                      3                       # What write queue length does an incoming req see
system.mem_ctrls.wrQLenPdf::41                      2                       # What write queue length does an incoming req see
system.mem_ctrls.wrQLenPdf::42                      1                       # What write queue length does an incoming req see
system.mem_ctrls.wrQLenPdf::43                      2                       # What write queue length does an incoming req see
system.mem_ctrls.wrQLenPdf::44                      1                       # What write queue length does an incoming req see
system.mem_ctrls.wrQLenPdf::45                      1                       # What write queue length does an incoming req see
system.mem_ctrls.wrQLenPdf::46                      1                       # What write queue length does an incoming req see
system.mem_ctrls.wrQLenPdf::47                      0                       # What write queue length does an incoming req see
system.mem_ctrls.wrQLenPdf::48                      0                       # What write queue length does an incoming req see
system.mem_ctrls.wrQLenPdf::49                      0                       # What write queue length does an incoming req see
system.mem_ctrls.wrQLenPdf::50                      0                       # What write queue length does an incoming req see
system.mem_ctrls.wrQLenPdf::51                      0                       # What write queue length does an incoming req see
system.mem_ctrls.wrQLenPdf::52                      0                       # What write queue length does an incoming req see
system.mem_ctrls.wrQLenPdf::53                      0                       # What write queue length does an incoming req see
system.mem_ctrls.wrQLenPdf::54                      0                       # What write queue length does an incoming req see
system.mem_ctrls.wrQLenPdf::55                      0                       # What write queue length does an incoming req see
system.mem_ctrls.wrQLenPdf::56                      0                       # What write queue length does an incoming req see
system.mem_ctrls.wrQLenPdf::57                      0                       # What write queue length does an incoming req see
system.mem_ctrls.wrQLenPdf::58                      0                       # What write queue length does an incoming req see
system.mem_ctrls.wrQLenPdf::59                      0                       # What write queue length does an incoming req see
system.mem_ctrls.wrQLenPdf::60                      0                       # What write queue length does an incoming req see
system.mem_ctrls.wrQLenPdf::61                      0                       # What write queue length does an incoming req see
system.mem_ctrls.wrQLenPdf::62                      0                       # What write queue length does an incoming req see
system.mem_ctrls.wrQLenPdf::63                      0                       # What write queue length does an incoming req see
system.mem_ctrls.bytesPerActivate::samples      2007756                       # Bytes accessed per row activation
system.mem_ctrls.bytesPerActivate::mean    135.449096                       # Bytes accessed per row activation
system.mem_ctrls.bytesPerActivate::gmean    86.914956                       # Bytes accessed per row activation
system.mem_ctrls.bytesPerActivate::stdev   210.771067                       # Bytes accessed per row activation
system.mem_ctrls.bytesPerActivate::0-127      1611680     80.27%     80.27% # Bytes accessed per row activation
system.mem_ctrls.bytesPerActivate::128-255       187233      9.33%     89.60% # Bytes accessed per row activation
system.mem_ctrls.bytesPerActivate::256-383        40294      2.01%     91.61% # Bytes accessed per row activation
system.mem_ctrls.bytesPerActivate::384-511        29633      1.48%     93.08% # Bytes accessed per row activation
system.mem_ctrls.bytesPerActivate::512-639        25440      1.27%     94.35% # Bytes accessed per row activation
system.mem_ctrls.bytesPerActivate::640-767        18679      0.93%     95.28% # Bytes accessed per row activation
system.mem_ctrls.bytesPerActivate::768-895        14175      0.71%     95.98% # Bytes accessed per row activation
system.mem_ctrls.bytesPerActivate::896-1023        11029      0.55%     96.53% # Bytes accessed per row activation
system.mem_ctrls.bytesPerActivate::1024-1151        69593      3.47%    100.00% # Bytes accessed per row activation
system.mem_ctrls.bytesPerActivate::total      2007756                       # Bytes accessed per row activation
system.mem_ctrls.rdPerTurnAround::samples        94729                       # Reads before turning the bus around for writes
system.mem_ctrls.rdPerTurnAround::mean      28.080936                       # Reads before turning the bus around for writes
system.mem_ctrls.rdPerTurnAround::stdev     27.450999                       # Reads before turning the bus around for writes
system.mem_ctrls.rdPerTurnAround::0-127         93536     98.74%     98.74% # Reads before turning the bus around for writes
system.mem_ctrls.rdPerTurnAround::128-255         1137      1.20%     99.94% # Reads before turning the bus around for writes
system.mem_ctrls.rdPerTurnAround::256-383           46      0.05%     99.99% # Reads before turning the bus around for writes
system.mem_ctrls.rdPerTurnAround::384-511            6      0.01%    100.00% # Reads before turning the bus around for writes
system.mem_ctrls.rdPerTurnAround::512-639            1      0.00%    100.00% # Reads before turning the bus around for writes
system.mem_ctrls.rdPerTurnAround::768-895            1      0.00%    100.00% # Reads before turning the bus around for writes
system.mem_ctrls.rdPerTurnAround::1536-1663            1      0.00%    100.00% # Reads before turning the bus around for writes
system.mem_ctrls.rdPerTurnAround::2816-2943            1      0.00%    100.00% # Reads before turning the bus around for writes
system.mem_ctrls.rdPerTurnAround::total         94729                       # Reads before turning the bus around for writes
system.mem_ctrls.wrPerTurnAround::samples        94729                       # Writes before turning the bus around for reads
system.mem_ctrls.wrPerTurnAround::mean      16.771168                       # Writes before turning the bus around for reads
system.mem_ctrls.wrPerTurnAround::gmean     16.735273                       # Writes before turning the bus around for reads
system.mem_ctrls.wrPerTurnAround::stdev      1.138759                       # Writes before turning the bus around for reads
system.mem_ctrls.wrPerTurnAround::16            60472     63.84%     63.84% # Writes before turning the bus around for reads
system.mem_ctrls.wrPerTurnAround::17             1968      2.08%     65.91% # Writes before turning the bus around for reads
system.mem_ctrls.wrPerTurnAround::18            28571     30.16%     96.08% # Writes before turning the bus around for reads
system.mem_ctrls.wrPerTurnAround::19             2511      2.65%     98.73% # Writes before turning the bus around for reads
system.mem_ctrls.wrPerTurnAround::20              642      0.68%     99.40% # Writes before turning the bus around for reads
system.mem_ctrls.wrPerTurnAround::21              222      0.23%     99.64% # Writes before turning the bus around for reads
system.mem_ctrls.wrPerTurnAround::22              127      0.13%     99.77% # Writes before turning the bus around for reads
system.mem_ctrls.wrPerTurnAround::23               70      0.07%     99.85% # Writes before turning the bus around for reads
system.mem_ctrls.wrPerTurnAround::24               50      0.05%     99.90% # Writes before turning the bus around for reads
system.mem_ctrls.wrPerTurnAround::25               35      0.04%     99.94% # Writes before turning the bus around for reads
system.mem_ctrls.wrPerTurnAround::26               25      0.03%     99.96% # Writes before turning the bus around for reads
system.mem_ctrls.wrPerTurnAround::27               12      0.01%     99.97% # Writes before turning the bus around for reads
system.mem_ctrls.wrPerTurnAround::28                4      0.00%     99.98% # Writes before turning the bus around for reads
system.mem_ctrls.wrPerTurnAround::29                6      0.01%     99.99% # Writes before turning the bus around for reads
system.mem_ctrls.wrPerTurnAround::30                4      0.00%     99.99% # Writes before turning the bus around for reads
system.mem_ctrls.wrPerTurnAround::31                1      0.00%     99.99% # Writes before turning the bus around for reads
system.mem_ctrls.wrPerTurnAround::32                1      0.00%     99.99% # Writes before turning the bus around for reads
system.mem_ctrls.wrPerTurnAround::33                2      0.00%     99.99% # Writes before turning the bus around for reads
system.mem_ctrls.wrPerTurnAround::35                2      0.00%    100.00% # Writes before turning the bus around for reads
system.mem_ctrls.wrPerTurnAround::39                2      0.00%    100.00% # Writes before turning the bus around for reads
system.mem_ctrls.wrPerTurnAround::41                1      0.00%    100.00% # Writes before turning the bus around for reads
system.mem_ctrls.wrPerTurnAround::42                1      0.00%    100.00% # Writes before turning the bus around for reads
system.mem_ctrls.wrPerTurnAround::total         94729                       # Writes before turning the bus around for reads
system.mem_ctrls.totQLat                  47114236499                       # Total ticks spent queuing
system.mem_ctrls.totMemAccLat             96998348999                       # Total ticks spent from burst creation until serviced by the DRAM
system.mem_ctrls.totBusLat                13302430000                       # Total ticks spent in databus transfers
system.mem_ctrls.avgQLat                     17708.88                       # Average queueing delay per DRAM burst
system.mem_ctrls.avgBusLat                    5000.00                       # Average bus latency per DRAM burst
system.mem_ctrls.avgMemAccLat                36458.88                       # Average memory access latency per DRAM burst
system.mem_ctrls.avgRdBW                       149.77                       # Average DRAM read bandwidth in MiByte/s
system.mem_ctrls.avgWrBW                        89.43                       # Average achieved write bandwidth in MiByte/s
system.mem_ctrls.avgRdBWSys                    149.85                       # Average system read bandwidth in MiByte/s
system.mem_ctrls.avgWrBWSys                     89.43                       # Average system write bandwidth in MiByte/s
system.mem_ctrls.peakBW                      12800.00                       # Theoretical peak bandwidth in MiByte/s
system.mem_ctrls.busUtil                         1.87                       # Data bus utilization in percentage
system.mem_ctrls.busUtilRead                     1.17                       # Data bus utilization in percentage for reads
system.mem_ctrls.busUtilWrite                    0.70                       # Data bus utilization in percentage for writes
system.mem_ctrls.avgRdQLen                       1.00                       # Average read queue length when enqueuing
system.mem_ctrls.avgWrQLen                      24.59                       # Average write queue length when enqueuing
system.mem_ctrls.readRowHits                  1522672                       # Number of row buffer hits during reads
system.mem_ctrls.writeRowHits                  718770                       # Number of row buffer hits during writes
system.mem_ctrls.readRowHitRate                 57.23                       # Row buffer hit rate for reads
system.mem_ctrls.writeRowHitRate                45.24                       # Row buffer hit rate for writes
system.mem_ctrls.avgGap                     267460.21                       # Average gap between requests
system.mem_ctrls.pageHitRate                    52.75                       # Row buffer hit rate, read and write combined
system.mem_ctrls_0.actEnergy               7610500800                       # Energy for activate commands per rank (pJ)
system.mem_ctrls_0.preEnergy               4152555000                       # Energy for precharge commands per rank (pJ)
system.mem_ctrls_0.readEnergy             10471601400                       # Energy for read commands per rank (pJ)
system.mem_ctrls_0.writeEnergy             5157224640                       # Energy for write commands per rank (pJ)
system.mem_ctrls_0.refreshEnergy          74685087360                       # Energy for refresh commands per rank (pJ)
system.mem_ctrls_0.actBackEnergy         244565295255                       # Energy for active background per rank (pJ)
system.mem_ctrls_0.preBackEnergy         471543713250                       # Energy for precharge background per rank (pJ)
system.mem_ctrls_0.totalEnergy           818185977705                       # Total energy per rank (pJ)
system.mem_ctrls_0.averagePower            715.536669                       # Core power per rank (mW)
system.mem_ctrls_0.memoryStateTime::IDLE 778562049750                       # Time in different power states
system.mem_ctrls_0.memoryStateTime::REF   37964160000                       # Time in different power states
system.mem_ctrls_0.memoryStateTime::PRE_PDN            0                       # Time in different power states
system.mem_ctrls_0.memoryStateTime::ACT  320388010250                       # Time in different power states
system.mem_ctrls_0.memoryStateTime::ACT_PDN            0                       # Time in different power states
system.mem_ctrls_1.actEnergy               7622370000                       # Energy for activate commands per rank (pJ)
system.mem_ctrls_1.preEnergy               4159031250                       # Energy for precharge commands per rank (pJ)
system.mem_ctrls_1.readEnergy             10483956600                       # Energy for read commands per rank (pJ)
system.mem_ctrls_1.writeEnergy             5157017280                       # Energy for write commands per rank (pJ)
system.mem_ctrls_1.refreshEnergy          74685087360                       # Energy for refresh commands per rank (pJ)
system.mem_ctrls_1.actBackEnergy         245141278830                       # Energy for active background per rank (pJ)
system.mem_ctrls_1.preBackEnergy         471038464500                       # Energy for precharge background per rank (pJ)
system.mem_ctrls_1.totalEnergy           818287205820                       # Total energy per rank (pJ)
system.mem_ctrls_1.averagePower            715.625197                       # Core power per rank (mW)
system.mem_ctrls_1.memoryStateTime::IDLE 777909980000                       # Time in different power states
system.mem_ctrls_1.memoryStateTime::REF   37964160000                       # Time in different power states
system.mem_ctrls_1.memoryStateTime::PRE_PDN            0                       # Time in different power states
system.mem_ctrls_1.memoryStateTime::ACT  321042982250                       # Time in different power states
system.mem_ctrls_1.memoryStateTime::ACT_PDN            0                       # Time in different power states
system.cpu_voltage_domain.voltage                   1                       # Voltage in Volts
system.cpu_clk_domain.clock                       500                       # Clock period in ticks
system.cpu0.apic_clk_domain.clock                8000                       # Clock period in ticks
system.cpu0.numCycles                      2275811450                       # number of cpu cycles simulated
system.cpu0.numWorkItemsStarted                     0                       # number of work items this cpu started
system.cpu0.numWorkItemsCompleted                   0                       # number of work items this cpu completed
system.cpu0.kern.inst.arm                           0                       # number of arm instructions executed
system.cpu0.kern.inst.quiesce                       0                       # number of quiesce instructions executed
system.cpu0.committedInsts                  534008447                       # Number of instructions committed
system.cpu0.committedOps                    709516591                       # Number of ops (including micro ops) committed
system.cpu0.num_int_alu_accesses            509129532                       # Number of integer alu accesses
system.cpu0.num_fp_alu_accesses             331101068                       # Number of float alu accesses
system.cpu0.num_func_calls                     445161                       # number of times a function call or return occured
system.cpu0.num_conditional_control_insts     31485120                       # number of instructions that are conditional controls
system.cpu0.num_int_insts                   509129532                       # number of integer instructions
system.cpu0.num_fp_insts                    331101068                       # number of float instructions
system.cpu0.num_int_register_reads         1070775345                       # number of times the integer registers were read
system.cpu0.num_int_register_writes         340108644                       # number of times the integer registers were written
system.cpu0.num_fp_register_reads           564014582                       # number of times the floating registers were read
system.cpu0.num_fp_register_writes          276695748                       # number of times the floating registers were written
system.cpu0.num_cc_register_reads           220457357                       # number of times the CC registers were read
system.cpu0.num_cc_register_writes          241467558                       # number of times the CC registers were written
system.cpu0.num_mem_refs                    152910623                       # number of memory refs
system.cpu0.num_load_insts                   94805695                       # Number of load instructions
system.cpu0.num_store_insts                  58104928                       # Number of store instructions
system.cpu0.num_idle_cycles              9207431.782614                       # Number of idle cycles
system.cpu0.num_busy_cycles              2266604018.217386                       # Number of busy cycles
system.cpu0.not_idle_fraction                0.995954                       # Percentage of non-idle cycles
system.cpu0.idle_fraction                    0.004046                       # Percentage of idle cycles
system.cpu0.Branches                         33912296                       # Number of branches fetched
system.cpu0.op_class::No_OpClass               957125      0.13%      0.13% # Class of executed instruction
system.cpu0.op_class::IntAlu                444337497     62.62%     62.76% # Class of executed instruction
system.cpu0.op_class::IntMult                   24740      0.00%     62.76% # Class of executed instruction
system.cpu0.op_class::IntDiv                   145178      0.02%     62.78% # Class of executed instruction
system.cpu0.op_class::FloatAdd              111149730     15.67%     78.45% # Class of executed instruction
system.cpu0.op_class::FloatCmp                      0      0.00%     78.45% # Class of executed instruction
system.cpu0.op_class::FloatCvt                      0      0.00%     78.45% # Class of executed instruction
system.cpu0.op_class::FloatMult                     0      0.00%     78.45% # Class of executed instruction
system.cpu0.op_class::FloatDiv                      0      0.00%     78.45% # Class of executed instruction
system.cpu0.op_class::FloatSqrt                     0      0.00%     78.45% # Class of executed instruction
system.cpu0.op_class::SimdAdd                       0      0.00%     78.45% # Class of executed instruction
system.cpu0.op_class::SimdAddAcc                    0      0.00%     78.45% # Class of executed instruction
system.cpu0.op_class::SimdAlu                       0      0.00%     78.45% # Class of executed instruction
system.cpu0.op_class::SimdCmp                       0      0.00%     78.45% # Class of executed instruction
system.cpu0.op_class::SimdCvt                       0      0.00%     78.45% # Class of executed instruction
system.cpu0.op_class::SimdMisc                      0      0.00%     78.45% # Class of executed instruction
system.cpu0.op_class::SimdMult                      0      0.00%     78.45% # Class of executed instruction
system.cpu0.op_class::SimdMultAcc                   0      0.00%     78.45% # Class of executed instruction
system.cpu0.op_class::SimdShift                     0      0.00%     78.45% # Class of executed instruction
system.cpu0.op_class::SimdShiftAcc                  0      0.00%     78.45% # Class of executed instruction
system.cpu0.op_class::SimdSqrt                      0      0.00%     78.45% # Class of executed instruction
system.cpu0.op_class::SimdFloatAdd                  0      0.00%     78.45% # Class of executed instruction
system.cpu0.op_class::SimdFloatAlu                  0      0.00%     78.45% # Class of executed instruction
system.cpu0.op_class::SimdFloatCmp                  0      0.00%     78.45% # Class of executed instruction
system.cpu0.op_class::SimdFloatCvt                  0      0.00%     78.45% # Class of executed instruction
system.cpu0.op_class::SimdFloatDiv                  0      0.00%     78.45% # Class of executed instruction
system.cpu0.op_class::SimdFloatMisc                 0      0.00%     78.45% # Class of executed instruction
system.cpu0.op_class::SimdFloatMult                 0      0.00%     78.45% # Class of executed instruction
system.cpu0.op_class::SimdFloatMultAcc              0      0.00%     78.45% # Class of executed instruction
system.cpu0.op_class::SimdFloatSqrt                 0      0.00%     78.45% # Class of executed instruction
system.cpu0.op_class::MemRead                94805695     13.36%     91.81% # Class of executed instruction
system.cpu0.op_class::MemWrite               58104928      8.19%    100.00% # Class of executed instruction
system.cpu0.op_class::IprAccess                     0      0.00%    100.00% # Class of executed instruction
system.cpu0.op_class::InstPrefetch                  0      0.00%    100.00% # Class of executed instruction
system.cpu0.op_class::total                 709524893                       # Class of executed instruction
system.cpu1.apic_clk_domain.clock                8000                       # Clock period in ticks
system.cpu1.numCycles                      2270975893                       # number of cpu cycles simulated
system.cpu1.numWorkItemsStarted                     0                       # number of work items this cpu started
system.cpu1.numWorkItemsCompleted                   0                       # number of work items this cpu completed
system.cpu1.kern.inst.arm                           0                       # number of arm instructions executed
system.cpu1.kern.inst.quiesce                       0                       # number of quiesce instructions executed
system.cpu1.committedInsts                     743623                       # Number of instructions committed
system.cpu1.committedOps                      1609402                       # Number of ops (including micro ops) committed
system.cpu1.num_int_alu_accesses              1575192                       # Number of integer alu accesses
system.cpu1.num_fp_alu_accesses                     0                       # Number of float alu accesses
system.cpu1.num_func_calls                      45320                       # number of times a function call or return occured
system.cpu1.num_conditional_control_insts       110804                       # number of instructions that are conditional controls
system.cpu1.num_int_insts                     1575192                       # number of integer instructions
system.cpu1.num_fp_insts                            0                       # number of float instructions
system.cpu1.num_int_register_reads            3198300                       # number of times the integer registers were read
system.cpu1.num_int_register_writes           1304706                       # number of times the integer registers were written
system.cpu1.num_fp_register_reads                   0                       # number of times the floating registers were read
system.cpu1.num_fp_register_writes                  0                       # number of times the floating registers were written
system.cpu1.num_cc_register_reads              887316                       # number of times the CC registers were read
system.cpu1.num_cc_register_writes             472589                       # number of times the CC registers were written
system.cpu1.num_mem_refs                       386595                       # number of memory refs
system.cpu1.num_load_insts                     240695                       # Number of load instructions
system.cpu1.num_store_insts                    145900                       # Number of store instructions
system.cpu1.num_idle_cycles              2267792757.045951                       # Number of idle cycles
system.cpu1.num_busy_cycles              3183135.954048                       # Number of busy cycles
system.cpu1.not_idle_fraction                0.001402                       # Percentage of non-idle cycles
system.cpu1.idle_fraction                    0.998598                       # Percentage of idle cycles
system.cpu1.Branches                           170652                       # Number of branches fetched
system.cpu1.op_class::No_OpClass                28541      1.77%      1.77% # Class of executed instruction
system.cpu1.op_class::IntAlu                  1181110     73.39%     75.16% # Class of executed instruction
system.cpu1.op_class::IntMult                    3352      0.21%     75.37% # Class of executed instruction
system.cpu1.op_class::IntDiv                     9807      0.61%     75.98% # Class of executed instruction
system.cpu1.op_class::FloatAdd                      0      0.00%     75.98% # Class of executed instruction
system.cpu1.op_class::FloatCmp                      0      0.00%     75.98% # Class of executed instruction
system.cpu1.op_class::FloatCvt                      0      0.00%     75.98% # Class of executed instruction
system.cpu1.op_class::FloatMult                     0      0.00%     75.98% # Class of executed instruction
system.cpu1.op_class::FloatDiv                      0      0.00%     75.98% # Class of executed instruction
system.cpu1.op_class::FloatSqrt                     0      0.00%     75.98% # Class of executed instruction
system.cpu1.op_class::SimdAdd                       0      0.00%     75.98% # Class of executed instruction
system.cpu1.op_class::SimdAddAcc                    0      0.00%     75.98% # Class of executed instruction
system.cpu1.op_class::SimdAlu                       0      0.00%     75.98% # Class of executed instruction
system.cpu1.op_class::SimdCmp                       0      0.00%     75.98% # Class of executed instruction
system.cpu1.op_class::SimdCvt                       0      0.00%     75.98% # Class of executed instruction
system.cpu1.op_class::SimdMisc                      0      0.00%     75.98% # Class of executed instruction
system.cpu1.op_class::SimdMult                      0      0.00%     75.98% # Class of executed instruction
system.cpu1.op_class::SimdMultAcc                   0      0.00%     75.98% # Class of executed instruction
system.cpu1.op_class::SimdShift                     0      0.00%     75.98% # Class of executed instruction
system.cpu1.op_class::SimdShiftAcc                  0      0.00%     75.98% # Class of executed instruction
system.cpu1.op_class::SimdSqrt                      0      0.00%     75.98% # Class of executed instruction
system.cpu1.op_class::SimdFloatAdd                  0      0.00%     75.98% # Class of executed instruction
system.cpu1.op_class::SimdFloatAlu                  0      0.00%     75.98% # Class of executed instruction
system.cpu1.op_class::SimdFloatCmp                  0      0.00%     75.98% # Class of executed instruction
system.cpu1.op_class::SimdFloatCvt                  0      0.00%     75.98% # Class of executed instruction
system.cpu1.op_class::SimdFloatDiv                  0      0.00%     75.98% # Class of executed instruction
system.cpu1.op_class::SimdFloatMisc                 0      0.00%     75.98% # Class of executed instruction
system.cpu1.op_class::SimdFloatMult                 0      0.00%     75.98% # Class of executed instruction
system.cpu1.op_class::SimdFloatMultAcc              0      0.00%     75.98% # Class of executed instruction
system.cpu1.op_class::SimdFloatSqrt                 0      0.00%     75.98% # Class of executed instruction
system.cpu1.op_class::MemRead                  240695     14.96%     90.93% # Class of executed instruction
system.cpu1.op_class::MemWrite                 145900      9.07%    100.00% # Class of executed instruction
system.cpu1.op_class::IprAccess                     0      0.00%    100.00% # Class of executed instruction
system.cpu1.op_class::InstPrefetch                  0      0.00%    100.00% # Class of executed instruction
system.cpu1.op_class::total                   1609405                       # Class of executed instruction
system.cpu2.apic_clk_domain.clock                8000                       # Clock period in ticks
system.cpu2.numCycles                      2271574318                       # number of cpu cycles simulated
system.cpu2.numWorkItemsStarted                     0                       # number of work items this cpu started
system.cpu2.numWorkItemsCompleted                   0                       # number of work items this cpu completed
system.cpu2.kern.inst.arm                           0                       # number of arm instructions executed
system.cpu2.kern.inst.quiesce                       0                       # number of quiesce instructions executed
system.cpu2.committedInsts                    2882454                       # Number of instructions committed
system.cpu2.committedOps                      5711457                       # Number of ops (including micro ops) committed
system.cpu2.num_int_alu_accesses              5612833                       # Number of integer alu accesses
system.cpu2.num_fp_alu_accesses                  1826                       # Number of float alu accesses
system.cpu2.num_func_calls                     145898                       # number of times a function call or return occured
system.cpu2.num_conditional_control_insts       486095                       # number of instructions that are conditional controls
system.cpu2.num_int_insts                     5612833                       # number of integer instructions
system.cpu2.num_fp_insts                         1826                       # number of float instructions
system.cpu2.num_int_register_reads           11169792                       # number of times the integer registers were read
system.cpu2.num_int_register_writes           4558003                       # number of times the integer registers were written
system.cpu2.num_fp_register_reads                3068                       # number of times the floating registers were read
system.cpu2.num_fp_register_writes               1448                       # number of times the floating registers were written
system.cpu2.num_cc_register_reads             3604823                       # number of times the CC registers were read
system.cpu2.num_cc_register_writes            1961784                       # number of times the CC registers were written
system.cpu2.num_mem_refs                      1289949                       # number of memory refs
system.cpu2.num_load_insts                     836526                       # Number of load instructions
system.cpu2.num_store_insts                    453423                       # Number of store instructions
system.cpu2.num_idle_cycles              2259332809.169641                       # Number of idle cycles
system.cpu2.num_busy_cycles              12241508.830359                       # Number of busy cycles
system.cpu2.not_idle_fraction                0.005389                       # Percentage of non-idle cycles
system.cpu2.idle_fraction                    0.994611                       # Percentage of idle cycles
system.cpu2.Branches                           658003                       # Number of branches fetched
system.cpu2.op_class::No_OpClass                35956      0.63%      0.63% # Class of executed instruction
system.cpu2.op_class::IntAlu                  4367679     76.47%     77.10% # Class of executed instruction
system.cpu2.op_class::IntMult                    5281      0.09%     77.19% # Class of executed instruction
system.cpu2.op_class::IntDiv                    11307      0.20%     77.39% # Class of executed instruction
system.cpu2.op_class::FloatAdd                   1376      0.02%     77.42% # Class of executed instruction
system.cpu2.op_class::FloatCmp                      0      0.00%     77.42% # Class of executed instruction
system.cpu2.op_class::FloatCvt                      0      0.00%     77.42% # Class of executed instruction
system.cpu2.op_class::FloatMult                     0      0.00%     77.42% # Class of executed instruction
system.cpu2.op_class::FloatDiv                      0      0.00%     77.42% # Class of executed instruction
system.cpu2.op_class::FloatSqrt                     0      0.00%     77.42% # Class of executed instruction
system.cpu2.op_class::SimdAdd                       0      0.00%     77.42% # Class of executed instruction
system.cpu2.op_class::SimdAddAcc                    0      0.00%     77.42% # Class of executed instruction
system.cpu2.op_class::SimdAlu                       0      0.00%     77.42% # Class of executed instruction
system.cpu2.op_class::SimdCmp                       0      0.00%     77.42% # Class of executed instruction
system.cpu2.op_class::SimdCvt                       0      0.00%     77.42% # Class of executed instruction
system.cpu2.op_class::SimdMisc                      0      0.00%     77.42% # Class of executed instruction
system.cpu2.op_class::SimdMult                      0      0.00%     77.42% # Class of executed instruction
system.cpu2.op_class::SimdMultAcc                   0      0.00%     77.42% # Class of executed instruction
system.cpu2.op_class::SimdShift                     0      0.00%     77.42% # Class of executed instruction
system.cpu2.op_class::SimdShiftAcc                  0      0.00%     77.42% # Class of executed instruction
system.cpu2.op_class::SimdSqrt                      0      0.00%     77.42% # Class of executed instruction
system.cpu2.op_class::SimdFloatAdd                  0      0.00%     77.42% # Class of executed instruction
system.cpu2.op_class::SimdFloatAlu                  0      0.00%     77.42% # Class of executed instruction
system.cpu2.op_class::SimdFloatCmp                  0      0.00%     77.42% # Class of executed instruction
system.cpu2.op_class::SimdFloatCvt                  0      0.00%     77.42% # Class of executed instruction
system.cpu2.op_class::SimdFloatDiv                  0      0.00%     77.42% # Class of executed instruction
system.cpu2.op_class::SimdFloatMisc                 0      0.00%     77.42% # Class of executed instruction
system.cpu2.op_class::SimdFloatMult                 0      0.00%     77.42% # Class of executed instruction
system.cpu2.op_class::SimdFloatMultAcc              0      0.00%     77.42% # Class of executed instruction
system.cpu2.op_class::SimdFloatSqrt                 0      0.00%     77.42% # Class of executed instruction
system.cpu2.op_class::MemRead                  836526     14.65%     92.06% # Class of executed instruction
system.cpu2.op_class::MemWrite                 453423      7.94%    100.00% # Class of executed instruction
system.cpu2.op_class::IprAccess                     0      0.00%    100.00% # Class of executed instruction
system.cpu2.op_class::InstPrefetch                  0      0.00%    100.00% # Class of executed instruction
system.cpu2.op_class::total                   5711548                       # Class of executed instruction
system.cpu3.apic_clk_domain.clock                8000                       # Clock period in ticks
system.cpu3.numCycles                      2278397393                       # number of cpu cycles simulated
system.cpu3.numWorkItemsStarted                     0                       # number of work items this cpu started
system.cpu3.numWorkItemsCompleted                   0                       # number of work items this cpu completed
system.cpu3.kern.inst.arm                           0                       # number of arm instructions executed
system.cpu3.kern.inst.quiesce                       0                       # number of quiesce instructions executed
system.cpu3.committedInsts                     925866                       # Number of instructions committed
system.cpu3.committedOps                      1986247                       # Number of ops (including micro ops) committed
system.cpu3.num_int_alu_accesses              1942322                       # Number of integer alu accesses
system.cpu3.num_fp_alu_accesses                    39                       # Number of float alu accesses
system.cpu3.num_func_calls                      56262                       # number of times a function call or return occured
system.cpu3.num_conditional_control_insts       136449                       # number of instructions that are conditional controls
system.cpu3.num_int_insts                     1942322                       # number of integer instructions
system.cpu3.num_fp_insts                           39                       # number of float instructions
system.cpu3.num_int_register_reads            3960405                       # number of times the integer registers were read
system.cpu3.num_int_register_writes           1607895                       # number of times the integer registers were written
system.cpu3.num_fp_register_reads                  63                       # number of times the floating registers were read
system.cpu3.num_fp_register_writes                 31                       # number of times the floating registers were written
system.cpu3.num_cc_register_reads             1083362                       # number of times the CC registers were read
system.cpu3.num_cc_register_writes             581184                       # number of times the CC registers were written
system.cpu3.num_mem_refs                       474701                       # number of memory refs
system.cpu3.num_load_insts                     294490                       # Number of load instructions
system.cpu3.num_store_insts                    180211                       # Number of store instructions
system.cpu3.num_idle_cycles              2274191934.940311                       # Number of idle cycles
system.cpu3.num_busy_cycles              4205458.059688                       # Number of busy cycles
system.cpu3.not_idle_fraction                0.001846                       # Percentage of non-idle cycles
system.cpu3.idle_fraction                    0.998154                       # Percentage of idle cycles
system.cpu3.Branches                           211058                       # Number of branches fetched
system.cpu3.op_class::No_OpClass                34660      1.74%      1.74% # Class of executed instruction
system.cpu3.op_class::IntAlu                  1460767     73.54%     75.29% # Class of executed instruction
system.cpu3.op_class::IntMult                    3575      0.18%     75.47% # Class of executed instruction
system.cpu3.op_class::IntDiv                    12536      0.63%     76.10% # Class of executed instruction
system.cpu3.op_class::FloatAdd                     30      0.00%     76.10% # Class of executed instruction
system.cpu3.op_class::FloatCmp                      0      0.00%     76.10% # Class of executed instruction
system.cpu3.op_class::FloatCvt                      0      0.00%     76.10% # Class of executed instruction
system.cpu3.op_class::FloatMult                     0      0.00%     76.10% # Class of executed instruction
system.cpu3.op_class::FloatDiv                      0      0.00%     76.10% # Class of executed instruction
system.cpu3.op_class::FloatSqrt                     0      0.00%     76.10% # Class of executed instruction
system.cpu3.op_class::SimdAdd                       0      0.00%     76.10% # Class of executed instruction
system.cpu3.op_class::SimdAddAcc                    0      0.00%     76.10% # Class of executed instruction
system.cpu3.op_class::SimdAlu                       0      0.00%     76.10% # Class of executed instruction
system.cpu3.op_class::SimdCmp                       0      0.00%     76.10% # Class of executed instruction
system.cpu3.op_class::SimdCvt                       0      0.00%     76.10% # Class of executed instruction
system.cpu3.op_class::SimdMisc                      0      0.00%     76.10% # Class of executed instruction
system.cpu3.op_class::SimdMult                      0      0.00%     76.10% # Class of executed instruction
system.cpu3.op_class::SimdMultAcc                   0      0.00%     76.10% # Class of executed instruction
system.cpu3.op_class::SimdShift                     0      0.00%     76.10% # Class of executed instruction
system.cpu3.op_class::SimdShiftAcc                  0      0.00%     76.10% # Class of executed instruction
system.cpu3.op_class::SimdSqrt                      0      0.00%     76.10% # Class of executed instruction
system.cpu3.op_class::SimdFloatAdd                  0      0.00%     76.10% # Class of executed instruction
system.cpu3.op_class::SimdFloatAlu                  0      0.00%     76.10% # Class of executed instruction
system.cpu3.op_class::SimdFloatCmp                  0      0.00%     76.10% # Class of executed instruction
system.cpu3.op_class::SimdFloatCvt                  0      0.00%     76.10% # Class of executed instruction
system.cpu3.op_class::SimdFloatDiv                  0      0.00%     76.10% # Class of executed instruction
system.cpu3.op_class::SimdFloatMisc                 0      0.00%     76.10% # Class of executed instruction
system.cpu3.op_class::SimdFloatMult                 0      0.00%     76.10% # Class of executed instruction
system.cpu3.op_class::SimdFloatMultAcc              0      0.00%     76.10% # Class of executed instruction
system.cpu3.op_class::SimdFloatSqrt                 0      0.00%     76.10% # Class of executed instruction
system.cpu3.op_class::MemRead                  294490     14.83%     90.93% # Class of executed instruction
system.cpu3.op_class::MemWrite                 180211      9.07%    100.00% # Class of executed instruction
system.cpu3.op_class::IprAccess                     0      0.00%    100.00% # Class of executed instruction
system.cpu3.op_class::InstPrefetch                  0      0.00%    100.00% # Class of executed instruction
system.cpu3.op_class::total                   1986269                       # Class of executed instruction
system.iobus.trans_dist::ReadReq                  714                       # Transaction distribution
system.iobus.trans_dist::ReadResp                 714                       # Transaction distribution
system.iobus.trans_dist::WriteReq                1412                       # Transaction distribution
system.iobus.trans_dist::WriteResp               1412                       # Transaction distribution
system.iobus.trans_dist::MessageReq                13                       # Transaction distribution
system.iobus.trans_dist::MessageResp               13                       # Transaction distribution
system.iobus.pkt_count_system.pc.south_bridge.io_apic.int_master::system.ruby.l1_cntrl0.sequencer.pio-slave-port            4                       # Packet count per connected master and slave (bytes)
system.iobus.pkt_count_system.pc.south_bridge.io_apic.int_master::system.ruby.l1_cntrl1.sequencer.pio-slave-port            4                       # Packet count per connected master and slave (bytes)
system.iobus.pkt_count_system.pc.south_bridge.io_apic.int_master::system.ruby.l1_cntrl2.sequencer.pio-slave-port            2                       # Packet count per connected master and slave (bytes)
system.iobus.pkt_count_system.pc.south_bridge.io_apic.int_master::system.ruby.l1_cntrl3.sequencer.pio-slave-port            2                       # Packet count per connected master and slave (bytes)
system.iobus.pkt_count_system.pc.south_bridge.io_apic.int_master::total           12                       # Packet count per connected master and slave (bytes)
system.iobus.pkt_count_system.ruby.l1_cntrl0.sequencer.mem-master-port::system.pc.south_bridge.io_apic.pio           14                       # Packet count per connected master and slave (bytes)
system.iobus.pkt_count_system.ruby.l1_cntrl0.sequencer.mem-master-port::system.pc.com_1.pio          130                       # Packet count per connected master and slave (bytes)
system.iobus.pkt_count_system.ruby.l1_cntrl0.sequencer.mem-master-port::system.ruby.l1_cntrl0.sequencer.pio-slave-port          590                       # Packet count per connected master and slave (bytes)
system.iobus.pkt_count_system.ruby.l1_cntrl0.sequencer.mem-master-port::system.ruby.l1_cntrl1.sequencer.pio-slave-port            2                       # Packet count per connected master and slave (bytes)
system.iobus.pkt_count_system.ruby.l1_cntrl0.sequencer.mem-master-port::system.ruby.l1_cntrl3.sequencer.pio-slave-port            2                       # Packet count per connected master and slave (bytes)
system.iobus.pkt_count_system.ruby.l1_cntrl0.sequencer.mem-master-port::total          738                       # Packet count per connected master and slave (bytes)
system.iobus.pkt_count_system.ruby.l1_cntrl1.sequencer.mem-master-port::system.pc.south_bridge.io_apic.pio           16                       # Packet count per connected master and slave (bytes)
system.iobus.pkt_count_system.ruby.l1_cntrl1.sequencer.mem-master-port::system.ruby.l1_cntrl1.sequencer.pio-slave-port          582                       # Packet count per connected master and slave (bytes)
system.iobus.pkt_count_system.ruby.l1_cntrl1.sequencer.mem-master-port::system.ruby.l1_cntrl2.sequencer.pio-slave-port            2                       # Packet count per connected master and slave (bytes)
system.iobus.pkt_count_system.ruby.l1_cntrl1.sequencer.mem-master-port::total          600                       # Packet count per connected master and slave (bytes)
system.iobus.pkt_count_system.ruby.l1_cntrl2.sequencer.mem-master-port::system.pc.south_bridge.io_apic.pio            8                       # Packet count per connected master and slave (bytes)
system.iobus.pkt_count_system.ruby.l1_cntrl2.sequencer.mem-master-port::system.ruby.l1_cntrl0.sequencer.pio-slave-port            2                       # Packet count per connected master and slave (bytes)
system.iobus.pkt_count_system.ruby.l1_cntrl2.sequencer.mem-master-port::system.ruby.l1_cntrl1.sequencer.pio-slave-port            2                       # Packet count per connected master and slave (bytes)
system.iobus.pkt_count_system.ruby.l1_cntrl2.sequencer.mem-master-port::system.ruby.l1_cntrl2.sequencer.pio-slave-port          590                       # Packet count per connected master and slave (bytes)
system.iobus.pkt_count_system.ruby.l1_cntrl2.sequencer.mem-master-port::system.ruby.l1_cntrl3.sequencer.pio-slave-port            2                       # Packet count per connected master and slave (bytes)
system.iobus.pkt_count_system.ruby.l1_cntrl2.sequencer.mem-master-port::total          604                       # Packet count per connected master and slave (bytes)
system.iobus.pkt_count_system.ruby.l1_cntrl3.sequencer.mem-master-port::system.pc.south_bridge.io_apic.pio            6                       # Packet count per connected master and slave (bytes)
system.iobus.pkt_count_system.ruby.l1_cntrl3.sequencer.mem-master-port::system.pc.com_1.pio         1734                       # Packet count per connected master and slave (bytes)
system.iobus.pkt_count_system.ruby.l1_cntrl3.sequencer.mem-master-port::system.ruby.l1_cntrl0.sequencer.pio-slave-port            2                       # Packet count per connected master and slave (bytes)
system.iobus.pkt_count_system.ruby.l1_cntrl3.sequencer.mem-master-port::system.ruby.l1_cntrl3.sequencer.pio-slave-port          582                       # Packet count per connected master and slave (bytes)
system.iobus.pkt_count_system.ruby.l1_cntrl3.sequencer.mem-master-port::total         2324                       # Packet count per connected master and slave (bytes)
system.iobus.pkt_count::total                    4278                       # Packet count per connected master and slave (bytes)
system.iobus.pkt_size_system.pc.south_bridge.io_apic.int_master::system.ruby.l1_cntrl0.sequencer.pio-slave-port            8                       # Cumulative packet size per connected master and slave (bytes)
system.iobus.pkt_size_system.pc.south_bridge.io_apic.int_master::system.ruby.l1_cntrl1.sequencer.pio-slave-port            8                       # Cumulative packet size per connected master and slave (bytes)
system.iobus.pkt_size_system.pc.south_bridge.io_apic.int_master::system.ruby.l1_cntrl2.sequencer.pio-slave-port            4                       # Cumulative packet size per connected master and slave (bytes)
system.iobus.pkt_size_system.pc.south_bridge.io_apic.int_master::system.ruby.l1_cntrl3.sequencer.pio-slave-port            4                       # Cumulative packet size per connected master and slave (bytes)
system.iobus.pkt_size_system.pc.south_bridge.io_apic.int_master::total           24                       # Cumulative packet size per connected master and slave (bytes)
system.iobus.pkt_size_system.ruby.l1_cntrl0.sequencer.mem-master-port::system.pc.south_bridge.io_apic.pio           28                       # Cumulative packet size per connected master and slave (bytes)
system.iobus.pkt_size_system.ruby.l1_cntrl0.sequencer.mem-master-port::system.pc.com_1.pio           65                       # Cumulative packet size per connected master and slave (bytes)
system.iobus.pkt_size_system.ruby.l1_cntrl0.sequencer.mem-master-port::system.ruby.l1_cntrl0.sequencer.pio-slave-port         1180                       # Cumulative packet size per connected master and slave (bytes)
system.iobus.pkt_size_system.ruby.l1_cntrl0.sequencer.mem-master-port::system.ruby.l1_cntrl1.sequencer.pio-slave-port            4                       # Cumulative packet size per connected master and slave (bytes)
system.iobus.pkt_size_system.ruby.l1_cntrl0.sequencer.mem-master-port::system.ruby.l1_cntrl3.sequencer.pio-slave-port            4                       # Cumulative packet size per connected master and slave (bytes)
system.iobus.pkt_size_system.ruby.l1_cntrl0.sequencer.mem-master-port::total         1281                       # Cumulative packet size per connected master and slave (bytes)
system.iobus.pkt_size_system.ruby.l1_cntrl1.sequencer.mem-master-port::system.pc.south_bridge.io_apic.pio           32                       # Cumulative packet size per connected master and slave (bytes)
system.iobus.pkt_size_system.ruby.l1_cntrl1.sequencer.mem-master-port::system.ruby.l1_cntrl1.sequencer.pio-slave-port         1164                       # Cumulative packet size per connected master and slave (bytes)
system.iobus.pkt_size_system.ruby.l1_cntrl1.sequencer.mem-master-port::system.ruby.l1_cntrl2.sequencer.pio-slave-port            4                       # Cumulative packet size per connected master and slave (bytes)
system.iobus.pkt_size_system.ruby.l1_cntrl1.sequencer.mem-master-port::total         1200                       # Cumulative packet size per connected master and slave (bytes)
system.iobus.pkt_size_system.ruby.l1_cntrl2.sequencer.mem-master-port::system.pc.south_bridge.io_apic.pio           16                       # Cumulative packet size per connected master and slave (bytes)
system.iobus.pkt_size_system.ruby.l1_cntrl2.sequencer.mem-master-port::system.ruby.l1_cntrl0.sequencer.pio-slave-port            4                       # Cumulative packet size per connected master and slave (bytes)
system.iobus.pkt_size_system.ruby.l1_cntrl2.sequencer.mem-master-port::system.ruby.l1_cntrl1.sequencer.pio-slave-port            4                       # Cumulative packet size per connected master and slave (bytes)
system.iobus.pkt_size_system.ruby.l1_cntrl2.sequencer.mem-master-port::system.ruby.l1_cntrl2.sequencer.pio-slave-port         1180                       # Cumulative packet size per connected master and slave (bytes)
system.iobus.pkt_size_system.ruby.l1_cntrl2.sequencer.mem-master-port::system.ruby.l1_cntrl3.sequencer.pio-slave-port            4                       # Cumulative packet size per connected master and slave (bytes)
system.iobus.pkt_size_system.ruby.l1_cntrl2.sequencer.mem-master-port::total         1208                       # Cumulative packet size per connected master and slave (bytes)
system.iobus.pkt_size_system.ruby.l1_cntrl3.sequencer.mem-master-port::system.pc.south_bridge.io_apic.pio           12                       # Cumulative packet size per connected master and slave (bytes)
system.iobus.pkt_size_system.ruby.l1_cntrl3.sequencer.mem-master-port::system.pc.com_1.pio          867                       # Cumulative packet size per connected master and slave (bytes)
system.iobus.pkt_size_system.ruby.l1_cntrl3.sequencer.mem-master-port::system.ruby.l1_cntrl0.sequencer.pio-slave-port            4                       # Cumulative packet size per connected master and slave (bytes)
system.iobus.pkt_size_system.ruby.l1_cntrl3.sequencer.mem-master-port::system.ruby.l1_cntrl3.sequencer.pio-slave-port         1164                       # Cumulative packet size per connected master and slave (bytes)
system.iobus.pkt_size_system.ruby.l1_cntrl3.sequencer.mem-master-port::total         2047                       # Cumulative packet size per connected master and slave (bytes)
system.iobus.pkt_size::total                     5760                       # Cumulative packet size per connected master and slave (bytes)
system.iobus.reqLayer8.occupancy                38496                       # Layer occupancy (ticks)
system.iobus.reqLayer8.utilization                0.0                       # Layer utilization (%)
system.iobus.reqLayer12.occupancy             1188000                       # Layer occupancy (ticks)
system.iobus.reqLayer12.utilization               0.0                       # Layer utilization (%)
system.iobus.reqLayer17.occupancy              800249                       # Layer occupancy (ticks)
system.iobus.reqLayer17.utilization               0.0                       # Layer utilization (%)
system.iobus.reqLayer18.occupancy              733000                       # Layer occupancy (ticks)
system.iobus.reqLayer18.utilization               0.0                       # Layer utilization (%)
system.iobus.reqLayer19.occupancy              734497                       # Layer occupancy (ticks)
system.iobus.reqLayer19.utilization               0.0                       # Layer utilization (%)
system.iobus.reqLayer20.occupancy              730500                       # Layer occupancy (ticks)
system.iobus.reqLayer20.utilization               0.0                       # Layer utilization (%)
system.iobus.respLayer0.occupancy                7500                       # Layer occupancy (ticks)
system.iobus.respLayer0.utilization               0.0                       # Layer utilization (%)
system.iobus.respLayer2.occupancy              569000                       # Layer occupancy (ticks)
system.iobus.respLayer2.utilization               0.0                       # Layer utilization (%)
system.iobus.respLayer4.occupancy              450500                       # Layer occupancy (ticks)
system.iobus.respLayer4.utilization               0.0                       # Layer utilization (%)
system.iobus.respLayer6.occupancy              454500                       # Layer occupancy (ticks)
system.iobus.respLayer6.utilization               0.0                       # Layer utilization (%)
system.iobus.respLayer8.occupancy             1959500                       # Layer occupancy (ticks)
system.iobus.respLayer8.utilization               0.0                       # Layer utilization (%)
system.pc.south_bridge.ide.disks.dma_read_full_pages            0                       # Number of full page size DMA reads (not PRD).
system.pc.south_bridge.ide.disks.dma_read_bytes            0                       # Number of bytes transfered via DMA reads (not PRD).
system.pc.south_bridge.ide.disks.dma_read_txs            0                       # Number of DMA read transactions (not PRD).
system.pc.south_bridge.ide.disks.dma_write_full_pages            0                       # Number of full page size DMA writes.
system.pc.south_bridge.ide.disks.dma_write_bytes            0                       # Number of bytes transfered via DMA writes.
system.pc.south_bridge.ide.disks.dma_write_txs            0                       # Number of DMA write transactions.
system.ruby.clk_domain.clock                      500                       # Clock period in ticks
system.ruby.outstanding_req_hist_seqr::bucket_size            1                      
system.ruby.outstanding_req_hist_seqr::max_bucket            9                      
system.ruby.outstanding_req_hist_seqr::samples    936236880                      
system.ruby.outstanding_req_hist_seqr::mean     1.000000                      
system.ruby.outstanding_req_hist_seqr::gmean     1.000000                      
system.ruby.outstanding_req_hist_seqr::stdev     0.000511                      
system.ruby.outstanding_req_hist_seqr    |           0      0.00%      0.00% |   936236636    100.00%    100.00% |         244      0.00%    100.00% |           0      0.00%    100.00% |           0      0.00%    100.00% |           0      0.00%    100.00% |           0      0.00%    100.00% |           0      0.00%    100.00% |           0      0.00%    100.00% |           0      0.00%    100.00%
system.ruby.outstanding_req_hist_seqr::total    936236880                      
system.ruby.latency_hist_seqr::bucket_size          256                      
system.ruby.latency_hist_seqr::max_bucket         2559                      
system.ruby.latency_hist_seqr::samples      936236880                      
system.ruby.latency_hist_seqr::mean          1.439352                      
system.ruby.latency_hist_seqr::gmean         1.030342                      
system.ruby.latency_hist_seqr::stdev         8.342981                      
system.ruby.latency_hist_seqr            |   936139538     99.99%     99.99% |       52087      0.01%    100.00% |       39385      0.00%    100.00% |        4190      0.00%    100.00% |        1204      0.00%    100.00% |         335      0.00%    100.00% |         113      0.00%    100.00% |          22      0.00%    100.00% |           5      0.00%    100.00% |           1      0.00%    100.00%
system.ruby.latency_hist_seqr::total        936236880                      
system.ruby.hit_latency_hist_seqr::bucket_size            2                      
system.ruby.hit_latency_hist_seqr::max_bucket           19                      
system.ruby.hit_latency_hist_seqr::samples    933529271                      
system.ruby.hit_latency_hist_seqr::mean      1.067330                      
system.ruby.hit_latency_hist_seqr::gmean     1.016276                      
system.ruby.hit_latency_hist_seqr::stdev     0.817781                      
system.ruby.hit_latency_hist_seqr        |   927243833     99.33%     99.33% |           0      0.00%     99.33% |           0      0.00%     99.33% |           0      0.00%     99.33% |           0      0.00%     99.33% |     6285438      0.67%    100.00% |           0      0.00%    100.00% |           0      0.00%    100.00% |           0      0.00%    100.00% |           0      0.00%    100.00%
system.ruby.hit_latency_hist_seqr::total    933529271                      
system.ruby.miss_latency_hist_seqr::bucket_size          256                      
system.ruby.miss_latency_hist_seqr::max_bucket         2559                      
system.ruby.miss_latency_hist_seqr::samples      2707609                      
system.ruby.miss_latency_hist_seqr::mean   129.705234                      
system.ruby.miss_latency_hist_seqr::gmean   117.816697                      
[...]
system.ruby.L1Cache_Controller.O.Other_GETS::total        12644                      
system.ruby.L1Cache_Controller.O.Merged_GETS |           0      0.00%      0.00% |           0      0.00%      0.00% |           0      0.00%      0.00% |           1    100.00%    100.00%
system.ruby.L1Cache_Controller.O.Merged_GETS::total            1                      
system.ruby.L1Cache_Controller.M.Load    |    33403537     99.12%     99.12% |       73831      0.22%     99.34% |      160019      0.47%     99.82% |       61988      0.18%    100.00%
system.ruby.L1Cache_Controller.M.Load::total     33699375                      
system.ruby.L1Cache_Controller.M.Ifetch  |   747539374     99.43%     99.43% |     1267410      0.17%     99.60% |     2969441      0.39%    100.00% |       30618      0.00%    100.00%
system.ruby.L1Cache_Controller.M.Ifetch::total    751806843                      
system.ruby.L1Cache_Controller.M.Store   |      550045     95.85%     95.85% |        2281      0.40%     96.24% |       20295      3.54%     99.78% |        1260      0.22%    100.00%
system.ruby.L1Cache_Controller.M.Store::total       573881                      
system.ruby.L1Cache_Controller.M.L2_Replacement |     1063587     99.70%     99.70% |         118      0.01%     99.71% |        3083      0.29%    100.00% |           8      0.00%    100.00%
system.ruby.L1Cache_Controller.M.L2_Replacement::total      1066796                      
system.ruby.L1Cache_Controller.M.L1_to_L2 |     1757797     98.96%     98.96% |        6108      0.34%     99.31% |        8756      0.49%     99.80% |        3541      0.20%    100.00%
system.ruby.L1Cache_Controller.M.L1_to_L2::total      1776202                      
system.ruby.L1Cache_Controller.M.Trigger_L2_to_L1D |      688550     99.32%     99.32% |        1638      0.24%     99.55% |        2507      0.36%     99.91% |         601      0.09%    100.00%
system.ruby.L1Cache_Controller.M.Trigger_L2_to_L1D::total       693296                      
system.ruby.L1Cache_Controller.M.Trigger_L2_to_L1I |        3077     58.68%     58.68% |        1424     27.15%     85.83% |         595     11.35%     97.18% |         148      2.82%    100.00%
system.ruby.L1Cache_Controller.M.Trigger_L2_to_L1I::total         5244                      
system.ruby.L1Cache_Controller.M.Other_GETX |         856     38.13%     38.13% |         773     34.43%     72.56% |         260     11.58%     84.14% |         356     15.86%    100.00%
system.ruby.L1Cache_Controller.M.Other_GETX::total         2245                      
system.ruby.L1Cache_Controller.M.Other_GETS |        2309     16.92%     16.92% |        2281     16.72%     33.64% |        4045     29.65%     63.29% |        5009     36.71%    100.00%
system.ruby.L1Cache_Controller.M.Other_GETS::total        13644                      
system.ruby.L1Cache_Controller.M.Merged_GETS |           1      1.01%      1.01% |           5      5.05%      6.06% |          38     38.38%     44.44% |          55     55.56%    100.00%
system.ruby.L1Cache_Controller.M.Merged_GETS::total           99                      
system.ruby.L1Cache_Controller.MM.Load   |    61686122     95.66%     95.66% |      588357      0.91%     96.58% |     1940221      3.01%     99.59% |      267454      0.41%    100.00%
system.ruby.L1Cache_Controller.MM.Load::total     64482154                      
system.ruby.L1Cache_Controller.MM.Store  |    55014030     95.27%     95.27% |      616531      1.07%     96.34% |     1809491      3.13%     99.47% |      306394      0.53%    100.00%
system.ruby.L1Cache_Controller.MM.Store::total     57746446                      
system.ruby.L1Cache_Controller.MM.L2_Replacement |     1586855     98.42%     98.42% |         507      0.03%     98.45% |       24932      1.55%    100.00% |           3      0.00%    100.00%
system.ruby.L1Cache_Controller.MM.L2_Replacement::total      1612297                      
system.ruby.L1Cache_Controller.MM.L1_to_L2 |     7080914     98.45%     98.45% |       16308      0.23%     98.68% |       89001      1.24%     99.92% |        5865      0.08%    100.00%
system.ruby.L1Cache_Controller.MM.L1_to_L2::total      7192088                      
system.ruby.L1Cache_Controller.MM.Trigger_L2_to_L1D |     5477486     98.85%     98.85% |        6269      0.11%     98.96% |       55133      0.99%     99.96% |        2343      0.04%    100.00%
system.ruby.L1Cache_Controller.MM.Trigger_L2_to_L1D::total      5541231                      
system.ruby.L1Cache_Controller.MM.Other_GETX |        4913     35.78%     35.78% |        3733     27.18%     62.96% |        2597     18.91%     81.87% |        2490     18.13%    100.00%
system.ruby.L1Cache_Controller.MM.Other_GETX::total        13733                      
system.ruby.L1Cache_Controller.MM.Other_GETS |       15997     55.27%     55.27% |        5995     20.71%     75.98% |        4676     16.16%     92.14% |        2275      7.86%    100.00%
system.ruby.L1Cache_Controller.MM.Other_GETS::total        28943                      
system.ruby.L1Cache_Controller.MM.Merged_GETS |         108     25.84%     25.84% |          41      9.81%     35.65% |         124     29.67%     65.31% |         145     34.69%    100.00%
system.ruby.L1Cache_Controller.MM.Merged_GETS::total          418                      
system.ruby.L1Cache_Controller.SR.Load   |       52944     85.63%     85.63% |        2653      4.29%     89.92% |        4360      7.05%     96.97% |        1874      3.03%    100.00%
system.ruby.L1Cache_Controller.SR.Load::total        61831                      
system.ruby.L1Cache_Controller.SR.Ifetch |       31814     39.80%     39.80% |       13780     17.24%     57.05% |       21267     26.61%     83.65% |       13064     16.35%    100.00%
system.ruby.L1Cache_Controller.SR.Ifetch::total        79925                      
system.ruby.L1Cache_Controller.SR.Store  |         145     45.31%     45.31% |          47     14.69%     60.00% |         125     39.06%     99.06% |           3      0.94%    100.00%
system.ruby.L1Cache_Controller.SR.Store::total          320                      
system.ruby.L1Cache_Controller.OR.Load   |        9769     79.92%     79.92% |         534      4.37%     84.29% |        1075      8.79%     93.08% |         846      6.92%    100.00%
system.ruby.L1Cache_Controller.OR.Load::total        12224                      
system.ruby.L1Cache_Controller.OR.Ifetch |        5282     36.88%     36.88% |        5188     36.22%     73.10% |        3163     22.08%     95.18% |         690      4.82%    100.00%
system.ruby.L1Cache_Controller.OR.Ifetch::total        14323                      
system.ruby.L1Cache_Controller.OR.Store  |          77     74.76%     74.76% |          12     11.65%     86.41% |           4      3.88%     90.29% |          10      9.71%    100.00%
system.ruby.L1Cache_Controller.OR.Store::total          103                      
system.ruby.L1Cache_Controller.MR.Load   |      688026     99.45%     99.45% |        1197      0.17%     99.62% |        2047      0.30%     99.92% |         564      0.08%    100.00%
system.ruby.L1Cache_Controller.MR.Load::total       691834                      
system.ruby.L1Cache_Controller.MR.Ifetch |        3077     58.68%     58.68% |        1424     27.15%     85.83% |         595     11.35%     97.18% |         148      2.82%    100.00%
system.ruby.L1Cache_Controller.MR.Ifetch::total         5244                      
system.ruby.L1Cache_Controller.MR.Store  |         524     35.84%     35.84% |         441     30.16%     66.01% |         460     31.46%     97.47% |          37      2.53%    100.00%
system.ruby.L1Cache_Controller.MR.Store::total         1462                      
system.ruby.L1Cache_Controller.MMR.Load  |     3215663     98.66%     98.66% |        4248      0.13%     98.79% |       38979      1.20%     99.98% |         572      0.02%    100.00%
system.ruby.L1Cache_Controller.MMR.Load::total      3259462                      
system.ruby.L1Cache_Controller.MMR.Store |     2261823     99.13%     99.13% |        2021      0.09%     99.21% |       16154      0.71%     99.92% |        1771      0.08%    100.00%
system.ruby.L1Cache_Controller.MMR.Store::total      2281769                      
system.ruby.L1Cache_Controller.IM.Ack    |     3143262     98.01%     98.01% |       25379      0.79%     98.80% |       29049      0.91%     99.70% |        9518      0.30%    100.00%
system.ruby.L1Cache_Controller.IM.Ack::total      3207208                      
system.ruby.L1Cache_Controller.IM.Data   |        1269     44.86%     44.86% |         472     16.68%     61.54% |         628     22.20%     83.74% |         460     16.26%    100.00%
system.ruby.L1Cache_Controller.IM.Data::total         2829                      
system.ruby.L1Cache_Controller.IM.Exclusive_Data |     1051617     97.45%     97.45% |        9487      0.88%     98.33% |       14500      1.34%     99.67% |        3533      0.33%    100.00%
system.ruby.L1Cache_Controller.IM.Exclusive_Data::total      1079137                      
system.ruby.L1Cache_Controller.SM.Other_GETX |           0      0.00%      0.00% |           1    100.00%    100.00% |           0      0.00%    100.00% |           0      0.00%    100.00%
system.ruby.L1Cache_Controller.SM.Other_GETX::total            1                      
system.ruby.L1Cache_Controller.SM.Ack    |        3915     54.76%     54.76% |        1259     17.61%     72.36% |        1360     19.02%     91.38% |         616      8.62%    100.00%
system.ruby.L1Cache_Controller.SM.Ack::total         7150                      
system.ruby.L1Cache_Controller.SM.Data   |        2774     47.98%     47.98% |        1301     22.50%     70.48% |        1075     18.59%     89.07% |         632     10.93%    100.00%
system.ruby.L1Cache_Controller.SM.Data::total         5782                      
system.ruby.L1Cache_Controller.OM.Ack    |         423     40.29%     40.29% |         165     15.71%     56.00% |         237     22.57%     78.57% |         225     21.43%    100.00%
system.ruby.L1Cache_Controller.OM.Ack::total         1050                      
system.ruby.L1Cache_Controller.OM.All_acks_no_sharers |         141     40.29%     40.29% |          55     15.71%     56.00% |          79     22.57%     78.57% |          75     21.43%    100.00%
system.ruby.L1Cache_Controller.OM.All_acks_no_sharers::total          350                      
system.ruby.L1Cache_Controller.ISM.Ack   |        2428     36.29%     36.29% |        1897     28.36%     64.65% |        1275     19.06%     83.71% |        1090     16.29%    100.00%
system.ruby.L1Cache_Controller.ISM.Ack::total         6690                      
system.ruby.L1Cache_Controller.ISM.All_acks_no_sharers |        4043     46.95%     46.95% |        1773     20.59%     67.54% |        1703     19.78%     87.32% |        1092     12.68%    100.00%
system.ruby.L1Cache_Controller.ISM.All_acks_no_sharers::total         8611                      
system.ruby.L1Cache_Controller.M_W.Load  |          86     31.50%     31.50% |         107     39.19%     70.70% |          50     18.32%     89.01% |          30     10.99%    100.00%
system.ruby.L1Cache_Controller.M_W.Load::total          273                      
system.ruby.L1Cache_Controller.M_W.Store |          12      8.76%      8.76% |         105     76.64%     85.40% |          16     11.68%     97.08% |           4      2.92%    100.00%
system.ruby.L1Cache_Controller.M_W.Store::total          137                      
system.ruby.L1Cache_Controller.M_W.Ack   |        4656     13.64%     13.64% |        2889      8.46%     22.10% |       20051     58.74%     80.84% |        6539     19.16%    100.00%
system.ruby.L1Cache_Controller.M_W.Ack::total        34135                      
system.ruby.L1Cache_Controller.M_W.All_acks_no_sharers |     1617649     97.43%     97.43% |        7050      0.42%     97.85% |       27959      1.68%     99.53% |        7728      0.47%    100.00%
system.ruby.L1Cache_Controller.M_W.All_acks_no_sharers::total      1660386                      
system.ruby.L1Cache_Controller.MM_W.Load |           0      0.00%      0.00% |           1    100.00%    100.00% |           0      0.00%    100.00% |           0      0.00%    100.00%
system.ruby.L1Cache_Controller.MM_W.Load::total            1                      
system.ruby.L1Cache_Controller.MM_W.Store |        1633     23.23%     23.23% |         974     13.86%     37.09% |        3986     56.71%     93.80% |         436      6.20%    100.00%
system.ruby.L1Cache_Controller.MM_W.Store::total         7029                      
system.ruby.L1Cache_Controller.MM_W.Ack  |        6791     37.54%     37.54% |        1940     10.72%     48.26% |        8565     47.34%     95.61% |         795      4.39%    100.00%
system.ruby.L1Cache_Controller.MM_W.Ack::total        18091                      
system.ruby.L1Cache_Controller.MM_W.All_acks_no_sharers |     1051629     97.44%     97.44% |        9592      0.89%     98.33% |       14516      1.34%     99.67% |        3537      0.33%    100.00%
system.ruby.L1Cache_Controller.MM_W.All_acks_no_sharers::total      1079274                      
system.ruby.L1Cache_Controller.IS.Other_GETS |           0      0.00%      0.00% |           0      0.00%      0.00% |           2    100.00%    100.00% |           0      0.00%    100.00%
system.ruby.L1Cache_Controller.IS.Other_GETS::total            2                      
system.ruby.L1Cache_Controller.IS.Ack    |     4863221     97.81%     97.81% |       24057      0.48%     98.29% |       69063      1.39%     99.68% |       15872      0.32%    100.00%
system.ruby.L1Cache_Controller.IS.Ack::total      4972213                      
system.ruby.L1Cache_Controller.IS.Shared_Ack |       18301     58.54%     58.54% |        3094      9.90%     68.44% |        8695     27.81%     96.25% |        1172      3.75%    100.00%
system.ruby.L1Cache_Controller.IS.Shared_Ack::total        31262                      
system.ruby.L1Cache_Controller.IS.Data   |        9339     50.65%     50.65% |        1169      6.34%     56.99% |        7388     40.07%     97.07% |         541      2.93%    100.00%
system.ruby.L1Cache_Controller.IS.Data::total        18437                      
system.ruby.L1Cache_Controller.IS.Shared_Data |        9141     34.10%     34.10% |        7524     28.07%     62.16% |        6508     24.28%     86.44% |        3636     13.56%    100.00%
system.ruby.L1Cache_Controller.IS.Shared_Data::total        26809                      
system.ruby.L1Cache_Controller.IS.Exclusive_Data |     1617661     97.42%     97.42% |        7155      0.43%     97.85% |       27975      1.68%     99.53% |        7732      0.47%    100.00%
system.ruby.L1Cache_Controller.IS.Exclusive_Data::total      1660523                      
system.ruby.L1Cache_Controller.SS.Load   |         222     56.78%     56.78% |          28      7.16%     63.94% |         134     34.27%     98.21% |           7      1.79%    100.00%
system.ruby.L1Cache_Controller.SS.Load::total          391                      
system.ruby.L1Cache_Controller.SS.Ifetch |        3040     58.03%     58.03% |        1172     22.37%     80.40% |         695     13.27%     93.66% |         332      6.34%    100.00%
system.ruby.L1Cache_Controller.SS.Ifetch::total         5239                      
system.ruby.L1Cache_Controller.SS.Store  |           2      3.64%      3.64% |           8     14.55%     18.18% |          16     29.09%     47.27% |          29     52.73%    100.00%
system.ruby.L1Cache_Controller.SS.Store::total           55                      
system.ruby.L1Cache_Controller.SS.Ack    |        4062     26.94%     26.94% |        4880     32.37%     59.31% |        4455     29.55%     88.86% |        1680     11.14%    100.00%
system.ruby.L1Cache_Controller.SS.Ack::total        15077                      
system.ruby.L1Cache_Controller.SS.Shared_Ack |        4385     57.01%     57.01% |        1239     16.11%     73.12% |        1317     17.12%     90.25% |         750      9.75%    100.00%
system.ruby.L1Cache_Controller.SS.Shared_Ack::total         7691                      
system.ruby.L1Cache_Controller.SS.All_acks |       16792     41.80%     41.80% |        8634     21.49%     63.29% |       10573     26.32%     89.61% |        4174     10.39%    100.00%
system.ruby.L1Cache_Controller.SS.All_acks::total        40173                      
system.ruby.L1Cache_Controller.SS.All_acks_no_sharers |        1688     33.27%     33.27% |          59      1.16%     34.44% |        3323     65.50%     99.94% |           3      0.06%    100.00%
system.ruby.L1Cache_Controller.SS.All_acks_no_sharers::total         5073                      
system.ruby.L1Cache_Controller.OI.Load   |           8     66.67%     66.67% |           0      0.00%     66.67% |           4     33.33%    100.00% |           0      0.00%    100.00%
system.ruby.L1Cache_Controller.OI.Load::total           12                      
system.ruby.L1Cache_Controller.OI.Ifetch |           5     50.00%     50.00% |           1     10.00%     60.00% |           4     40.00%    100.00% |           0      0.00%    100.00%
system.ruby.L1Cache_Controller.OI.Ifetch::total           10                      
system.ruby.L1Cache_Controller.OI.Writeback_Ack |        4689     73.62%     73.62% |          73      1.15%     74.77% |        1601     25.14%     99.91% |           6      0.09%    100.00%
system.ruby.L1Cache_Controller.OI.Writeback_Ack::total         6369                      
system.ruby.L1Cache_Controller.MI.Load   |         260     56.52%     56.52% |           1      0.22%     56.74% |         199     43.26%    100.00% |           0      0.00%    100.00%
system.ruby.L1Cache_Controller.MI.Load::total          460                      
system.ruby.L1Cache_Controller.MI.Ifetch |           4    100.00%    100.00% |           0      0.00%    100.00% |           0      0.00%    100.00% |           0      0.00%    100.00%
system.ruby.L1Cache_Controller.MI.Ifetch::total            4                      
system.ruby.L1Cache_Controller.MI.Store  |        1225     91.01%     91.01% |           9      0.67%     91.68% |         112      8.32%    100.00% |           0      0.00%    100.00%
system.ruby.L1Cache_Controller.MI.Store::total         1346                      
system.ruby.L1Cache_Controller.MI.Writeback_Ack |     2650442     98.93%     98.93% |         625      0.02%     98.95% |       28015      1.05%    100.00% |          11      0.00%    100.00%
system.ruby.L1Cache_Controller.MI.Writeback_Ack::total      2679093                      
system.ruby.L1Cache_Controller.ST.Complete_L2_to_L1 |       84903     59.76%     59.76% |       16480     11.60%     71.36% |       25752     18.13%     89.48% |       14941     10.52%    100.00%
system.ruby.L1Cache_Controller.ST.Complete_L2_to_L1::total       142076                      
system.ruby.L1Cache_Controller.OT.Complete_L2_to_L1 |       15128     56.77%     56.77% |        5734     21.52%     78.28% |        4242     15.92%     94.20% |        1546      5.80%    100.00%
system.ruby.L1Cache_Controller.OT.Complete_L2_to_L1::total        26650                      
system.ruby.L1Cache_Controller.MT.Complete_L2_to_L1 |      691627     99.01%     99.01% |        3062      0.44%     99.45% |        3102      0.44%     99.89% |         749      0.11%    100.00%
system.ruby.L1Cache_Controller.MT.Complete_L2_to_L1::total       698540                      
system.ruby.L1Cache_Controller.MMT.Complete_L2_to_L1 |     5477486     98.85%     98.85% |        6269      0.11%     98.96% |       55133      0.99%     99.96% |        2343      0.04%    100.00%
system.ruby.L1Cache_Controller.MMT.Complete_L2_to_L1::total      5541231                      

---------- End Simulation Statistics   ----------
