
---------- Begin Simulation Statistics ----------
sim_seconds                                  3.924690                       # Number of seconds simulated
sim_ticks                                3924690378500                       # Number of ticks simulated
final_tick                               55163671679001                       # Number of ticks from beginning of simulation (restored from checkpoints and never reset)
sim_freq                                 1000000000000                       # Frequency of simulated ticks
host_inst_rate                                 133134                       # Simulator instruction rate (inst/s)
host_op_rate                                   226758                       # Simulator op (including micro ops) rate (op/s)
host_tick_rate                              258475568                       # Simulator tick rate (ticks/s)
host_mem_usage                                1870280                       # Number of bytes of host memory used
host_seconds                                 15183.99                       # Real time elapsed on the host
sim_insts                                  2021508058                       # Number of instructions simulated
sim_ops                                    3443085788                       # Number of ops (including micro ops) simulated
system.voltage_domain.voltage                       1                       # Voltage in Volts
system.clk_domain.clock                          1000                       # Clock period in ticks
system.mem_ctrls0.bytes_read::ruby.dir_cntrl0       648384                       # Number of bytes read from this memory
system.mem_ctrls0.bytes_read::total            648384                       # Number of bytes read from this memory
system.mem_ctrls0.bytes_written::ruby.dir_cntrl0       199104                       # Number of bytes written to this memory
system.mem_ctrls0.bytes_written::total         199104                       # Number of bytes written to this memory
system.mem_ctrls0.num_reads::ruby.dir_cntrl0        10131                       # Number of read requests responded to by this memory
system.mem_ctrls0.num_reads::total              10131                       # Number of read requests responded to by this memory
system.mem_ctrls0.num_writes::ruby.dir_cntrl0         3111                       # Number of write requests responded to by this memory
system.mem_ctrls0.num_writes::total              3111                       # Number of write requests responded to by this memory
system.mem_ctrls0.bw_read::ruby.dir_cntrl0       165206                       # Total read bandwidth from this memory (bytes/s)
system.mem_ctrls0.bw_read::total               165206                       # Total read bandwidth from this memory (bytes/s)
system.mem_ctrls0.bw_write::ruby.dir_cntrl0        50731                       # Write bandwidth from this memory (bytes/s)
system.mem_ctrls0.bw_write::total               50731                       # Write bandwidth from this memory (bytes/s)
system.mem_ctrls0.bw_total::ruby.dir_cntrl0       215938                       # Total bandwidth to/from this memory (bytes/s)
system.mem_ctrls0.bw_total::total              215938                       # Total bandwidth to/from this memory (bytes/s)
system.mem_ctrls0.readReqs                      10131                       # Number of read requests accepted
system.mem_ctrls0.writeReqs                      3111                       # Number of write requests accepted
system.mem_ctrls0.readBursts                    10131                       # Number of DRAM read bursts, including those serviced by the write queue
system.mem_ctrls0.writeBursts                    3111                       # Number of DRAM write bursts, including those merged in the write queue
system.mem_ctrls0.bytesReadDRAM                644992                       # Total number of bytes read from DRAM
system.mem_ctrls0.bytesReadWrQ                   3392                       # Total number of bytes read from write queue
system.mem_ctrls0.bytesWritten                 198784                       # Total number of bytes written to DRAM
system.mem_ctrls0.bytesReadSys                 648384                       # Total read bytes from the system interface side
system.mem_ctrls0.bytesWrittenSys              199104                       # Total written bytes from the system interface side
system.mem_ctrls0.servicedByWrQ                    53                       # Number of DRAM read bursts serviced by the write queue
system.mem_ctrls0.mergedWrBursts                    1                       # Number of DRAM write bursts merged with an existing one
system.mem_ctrls0.neitherReadNorWriteReqs            0                       # Number of requests that are neither read nor write
system.mem_ctrls0.perBankRdBursts::0              966                       # Per bank write bursts
system.mem_ctrls0.perBankRdBursts::1              670                       # Per bank write bursts
system.mem_ctrls0.perBankRdBursts::2              526                       # Per bank write bursts
system.mem_ctrls0.perBankRdBursts::3              535                       # Per bank write bursts
system.mem_ctrls0.perBankRdBursts::4              543                       # Per bank write bursts
system.mem_ctrls0.perBankRdBursts::5              659                       # Per bank write bursts
system.mem_ctrls0.perBankRdBursts::6              499                       # Per bank write bursts
system.mem_ctrls0.perBankRdBursts::7              805                       # Per bank write bursts
system.mem_ctrls0.perBankRdBursts::8              449                       # Per bank write bursts
system.mem_ctrls0.perBankRdBursts::9              736                       # Per bank write bursts
system.mem_ctrls0.perBankRdBursts::10             765                       # Per bank write bursts
system.mem_ctrls0.perBankRdBursts::11             500                       # Per bank write bursts
system.mem_ctrls0.perBankRdBursts::12             613                       # Per bank write bursts
system.mem_ctrls0.perBankRdBursts::13             450                       # Per bank write bursts
system.mem_ctrls0.perBankRdBursts::14             569                       # Per bank write bursts
system.mem_ctrls0.perBankRdBursts::15             793                       # Per bank write bursts
system.mem_ctrls0.perBankWrBursts::0              511                       # Per bank write bursts
system.mem_ctrls0.perBankWrBursts::1              242                       # Per bank write bursts
system.mem_ctrls0.perBankWrBursts::2              348                       # Per bank write bursts
system.mem_ctrls0.perBankWrBursts::3              158                       # Per bank write bursts
system.mem_ctrls0.perBankWrBursts::4               32                       # Per bank write bursts
system.mem_ctrls0.perBankWrBursts::5               60                       # Per bank write bursts
system.mem_ctrls0.perBankWrBursts::6               76                       # Per bank write bursts
system.mem_ctrls0.perBankWrBursts::7              195                       # Per bank write bursts
system.mem_ctrls0.perBankWrBursts::8              138                       # Per bank write bursts
system.mem_ctrls0.perBankWrBursts::9              239                       # Per bank write bursts
system.mem_ctrls0.perBankWrBursts::10             304                       # Per bank write bursts
system.mem_ctrls0.perBankWrBursts::11             167                       # Per bank write bursts
system.mem_ctrls0.perBankWrBursts::12             199                       # Per bank write bursts
system.mem_ctrls0.perBankWrBursts::13             116                       # Per bank write bursts
system.mem_ctrls0.perBankWrBursts::14              55                       # Per bank write bursts
system.mem_ctrls0.perBankWrBursts::15             266                       # Per bank write bursts
system.mem_ctrls0.numRdRetry                        0                       # Number of times read queue was full causing retry
system.mem_ctrls0.numWrRetry                        0                       # Number of times write queue was full causing retry
system.mem_ctrls0.totGap                 3924690165000                       # Total gap between requests
system.mem_ctrls0.readPktSize::0                    0                       # Read request sizes (log2)
system.mem_ctrls0.readPktSize::1                    0                       # Read request sizes (log2)
system.mem_ctrls0.readPktSize::2                    0                       # Read request sizes (log2)
system.mem_ctrls0.readPktSize::3                    0                       # Read request sizes (log2)
system.mem_ctrls0.readPktSize::4                    0                       # Read request sizes (log2)
system.mem_ctrls0.readPktSize::5                    0                       # Read request sizes (log2)
system.mem_ctrls0.readPktSize::6                10131                       # Read request sizes (log2)
system.mem_ctrls0.writePktSize::0                   0                       # Write request sizes (log2)
system.mem_ctrls0.writePktSize::1                   0                       # Write request sizes (log2)
system.mem_ctrls0.writePktSize::2                   0                       # Write request sizes (log2)
system.mem_ctrls0.writePktSize::3                   0                       # Write request sizes (log2)
system.mem_ctrls0.writePktSize::4                   0                       # Write request sizes (log2)
system.mem_ctrls0.writePktSize::5                   0                       # Write request sizes (log2)
system.mem_ctrls0.writePktSize::6                3111                       # Write request sizes (log2)
system.mem_ctrls0.rdQLenPdf::0                  10049                       # What read queue length does an incoming req see
system.mem_ctrls0.rdQLenPdf::1                     29                       # What read queue length does an incoming req see
system.mem_ctrls0.rdQLenPdf::2                      0                       # What read queue length does an incoming req see
system.mem_ctrls0.rdQLenPdf::3                      0                       # What read queue length does an incoming req see
system.mem_ctrls0.rdQLenPdf::4                      0                       # What read queue length does an incoming req see
system.mem_ctrls0.rdQLenPdf::5                      0                       # What read queue length does an incoming req see
system.mem_ctrls0.rdQLenPdf::6                      0                       # What read queue length does an incoming req see
system.mem_ctrls0.rdQLenPdf::7                      0                       # What read queue length does an incoming req see
system.mem_ctrls0.rdQLenPdf::8                      0                       # What read queue length does an incoming req see
system.mem_ctrls0.rdQLenPdf::9                      0                       # What read queue length does an incoming req see
system.mem_ctrls0.rdQLenPdf::10                     0                       # What read queue length does an incoming req see
system.mem_ctrls0.rdQLenPdf::11                     0                       # What read queue length does an incoming req see
system.mem_ctrls0.rdQLenPdf::12                     0                       # What read queue length does an incoming req see
system.mem_ctrls0.rdQLenPdf::13                     0                       # What read queue length does an incoming req see
system.mem_ctrls0.rdQLenPdf::14                     0                       # What read queue length does an incoming req see
system.mem_ctrls0.rdQLenPdf::15                     0                       # What read queue length does an incoming req see
system.mem_ctrls0.rdQLenPdf::16                     0                       # What read queue length does an incoming req see
system.mem_ctrls0.rdQLenPdf::17                     0                       # What read queue length does an incoming req see
system.mem_ctrls0.rdQLenPdf::18                     0                       # What read queue length does an incoming req see
system.mem_ctrls0.rdQLenPdf::19                     0                       # What read queue length does an incoming req see
system.mem_ctrls0.rdQLenPdf::20                     0                       # What read queue length does an incoming req see
system.mem_ctrls0.rdQLenPdf::21                     0                       # What read queue length does an incoming req see
system.mem_ctrls0.rdQLenPdf::22                     0                       # What read queue length does an incoming req see
system.mem_ctrls0.rdQLenPdf::23                     0                       # What read queue length does an incoming req see
system.mem_ctrls0.rdQLenPdf::24                     0                       # What read queue length does an incoming req see
system.mem_ctrls0.rdQLenPdf::25                     0                       # What read queue length does an incoming req see
system.mem_ctrls0.rdQLenPdf::26                     0                       # What read queue length does an incoming req see
system.mem_ctrls0.rdQLenPdf::27                     0                       # What read queue length does an incoming req see
system.mem_ctrls0.rdQLenPdf::28                     0                       # What read queue length does an incoming req see
system.mem_ctrls0.rdQLenPdf::29                     0                       # What read queue length does an incoming req see
system.mem_ctrls0.rdQLenPdf::30                     0                       # What read queue length does an incoming req see
system.mem_ctrls0.rdQLenPdf::31                     0                       # What read queue length does an incoming req see
system.mem_ctrls0.wrQLenPdf::0                      0                       # What write queue length does an incoming req see
system.mem_ctrls0.wrQLenPdf::1                      0                       # What write queue length does an incoming req see
system.mem_ctrls0.wrQLenPdf::2                      0                       # What write queue length does an incoming req see
system.mem_ctrls0.wrQLenPdf::3                      0                       # What write queue length does an incoming req see
system.mem_ctrls0.wrQLenPdf::4                      0                       # What write queue length does an incoming req see
system.mem_ctrls0.wrQLenPdf::5                      0                       # What write queue length does an incoming req see
system.mem_ctrls0.wrQLenPdf::6                      0                       # What write queue length does an incoming req see
system.mem_ctrls0.wrQLenPdf::7                      0                       # What write queue length does an incoming req see
system.mem_ctrls0.wrQLenPdf::8                      0                       # What write queue length does an incoming req see
system.mem_ctrls0.wrQLenPdf::9                      0                       # What write queue length does an incoming req see
system.mem_ctrls0.wrQLenPdf::10                     0                       # What write queue length does an incoming req see
system.mem_ctrls0.wrQLenPdf::11                     0                       # What write queue length does an incoming req see
system.mem_ctrls0.wrQLenPdf::12                     0                       # What write queue length does an incoming req see
system.mem_ctrls0.wrQLenPdf::13                     0                       # What write queue length does an incoming req see
system.mem_ctrls0.wrQLenPdf::14                     0                       # What write queue length does an incoming req see
system.mem_ctrls0.wrQLenPdf::15                    80                       # What write queue length does an incoming req see
system.mem_ctrls0.wrQLenPdf::16                    89                       # What write queue length does an incoming req see
system.mem_ctrls0.wrQLenPdf::17                   186                       # What write queue length does an incoming req see
system.mem_ctrls0.wrQLenPdf::18                   178                       # What write queue length does an incoming req see
system.mem_ctrls0.wrQLenPdf::19                   191                       # What write queue length does an incoming req see
system.mem_ctrls0.wrQLenPdf::20                   189                       # What write queue length does an incoming req see
system.mem_ctrls0.wrQLenPdf::21                   194                       # What write queue length does an incoming req see
system.mem_ctrls0.wrQLenPdf::22                   197                       # What write queue length does an incoming req see
system.mem_ctrls0.wrQLenPdf::23                   181                       # What write queue length does an incoming req see
system.mem_ctrls0.wrQLenPdf::24                   184                       # What write queue length does an incoming req see
system.mem_ctrls0.wrQLenPdf::25                   179                       # What write queue length does an incoming req see
system.mem_ctrls0.wrQLenPdf::26                   181                       # What write queue length does an incoming req see
system.mem_ctrls0.wrQLenPdf::27                   178                       # What write queue length does an incoming req see
system.mem_ctrls0.wrQLenPdf::28                   181                       # What write queue length does an incoming req see
system.mem_ctrls0.wrQLenPdf::29                   177                       # What write queue length does an incoming req see
system.mem_ctrls0.wrQLenPdf::30                   179                       # What write queue length does an incoming req see
system.mem_ctrls0.wrQLenPdf::31                   177                       # What write queue length does an incoming req see
system.mem_ctrls0.wrQLenPdf::32                   177                       # What write queue length does an incoming req see
system.mem_ctrls0.wrQLenPdf::33                     4                       # What write queue length does an incoming req see
system.mem_ctrls0.wrQLenPdf::34                     3                       # What write queue length does an incoming req see
system.mem_ctrls0.wrQLenPdf::35                     3                       # What write queue length does an incoming req see
system.mem_ctrls0.wrQLenPdf::36                     1                       # What write queue length does an incoming req see
system.mem_ctrls0.wrQLenPdf::37                     1                       # What write queue length does an incoming req see
system.mem_ctrls0.wrQLenPdf::38                     0                       # What write queue length does an incoming req see
system.mem_ctrls0.wrQLenPdf::39                     0                       # What write queue length does an incoming req see
system.mem_ctrls0.wrQLenPdf::40                     0                       # What write queue length does an incoming req see
system.mem_ctrls0.wrQLenPdf::41                     0                       # What write queue length does an incoming req see
system.mem_ctrls0.wrQLenPdf::42                     0                       # What write queue length does an incoming req see
system.mem_ctrls0.wrQLenPdf::43                     0                       # What write queue length does an incoming req see
system.mem_ctrls0.wrQLenPdf::44                     0                       # What write queue length does an incoming req see
system.mem_ctrls0.wrQLenPdf::45                     0                       # What write queue length does an incoming req see
system.mem_ctrls0.wrQLenPdf::46                     0                       # What write queue length does an incoming req see
system.mem_ctrls0.wrQLenPdf::47                     0                       # What write queue length does an incoming req see
system.mem_ctrls0.wrQLenPdf::48                     0                       # What write queue length does an incoming req see
system.mem_ctrls0.wrQLenPdf::49                     0                       # What write queue length does an incoming req see
system.mem_ctrls0.wrQLenPdf::50                     0                       # What write queue length does an incoming req see
system.mem_ctrls0.wrQLenPdf::51                     0                       # What write queue length does an incoming req see
system.mem_ctrls0.wrQLenPdf::52                     0                       # What write queue length does an incoming req see
system.mem_ctrls0.wrQLenPdf::53                     0                       # What write queue length does an incoming req see
system.mem_ctrls0.wrQLenPdf::54                     0                       # What write queue length does an incoming req see
system.mem_ctrls0.wrQLenPdf::55                     0                       # What write queue length does an incoming req see
system.mem_ctrls0.wrQLenPdf::56                     0                       # What write queue length does an incoming req see
system.mem_ctrls0.wrQLenPdf::57                     0                       # What write queue length does an incoming req see
system.mem_ctrls0.wrQLenPdf::58                     0                       # What write queue length does an incoming req see
system.mem_ctrls0.wrQLenPdf::59                     0                       # What write queue length does an incoming req see
system.mem_ctrls0.wrQLenPdf::60                     0                       # What write queue length does an incoming req see
system.mem_ctrls0.wrQLenPdf::61                     0                       # What write queue length does an incoming req see
system.mem_ctrls0.wrQLenPdf::62                     0                       # What write queue length does an incoming req see
system.mem_ctrls0.wrQLenPdf::63                     0                       # What write queue length does an incoming req see
system.mem_ctrls0.bytesPerActivate::samples         4400                       # Bytes accessed per row activation
system.mem_ctrls0.bytesPerActivate::mean   191.752727                       # Bytes accessed per row activation
system.mem_ctrls0.bytesPerActivate::gmean   114.919857                       # Bytes accessed per row activation
system.mem_ctrls0.bytesPerActivate::stdev   261.539403                       # Bytes accessed per row activation
system.mem_ctrls0.bytesPerActivate::0-127         2616     59.45%     59.45% # Bytes accessed per row activation
system.mem_ctrls0.bytesPerActivate::128-255          973     22.11%     81.57% # Bytes accessed per row activation
system.mem_ctrls0.bytesPerActivate::256-383          236      5.36%     86.93% # Bytes accessed per row activation
system.mem_ctrls0.bytesPerActivate::384-511           93      2.11%     89.05% # Bytes accessed per row activation
system.mem_ctrls0.bytesPerActivate::512-639           71      1.61%     90.66% # Bytes accessed per row activation
system.mem_ctrls0.bytesPerActivate::640-767           52      1.18%     91.84% # Bytes accessed per row activation
system.mem_ctrls0.bytesPerActivate::768-895           43      0.98%     92.82% # Bytes accessed per row activation
system.mem_ctrls0.bytesPerActivate::896-1023           47      1.07%     93.89% # Bytes accessed per row activation
system.mem_ctrls0.bytesPerActivate::1024-1151          269      6.11%    100.00% # Bytes accessed per row activation
system.mem_ctrls0.bytesPerActivate::total         4400                       # Bytes accessed per row activation
system.mem_ctrls0.rdPerTurnAround::samples          177                       # Reads before turning the bus around for writes
system.mem_ctrls0.rdPerTurnAround::mean    100.389831                       # Reads before turning the bus around for writes
system.mem_ctrls0.rdPerTurnAround::stdev   619.048666                       # Reads before turning the bus around for writes
system.mem_ctrls0.rdPerTurnAround::0-511          174     98.31%     98.31% # Reads before turning the bus around for writes
system.mem_ctrls0.rdPerTurnAround::512-1023            2      1.13%     99.44% # Reads before turning the bus around for writes
system.mem_ctrls0.rdPerTurnAround::8192-8703            1      0.56%    100.00% # Reads before turning the bus around for writes
system.mem_ctrls0.rdPerTurnAround::total          177                       # Reads before turning the bus around for writes
system.mem_ctrls0.wrPerTurnAround::samples          177                       # Writes before turning the bus around for reads
system.mem_ctrls0.wrPerTurnAround::mean     17.548023                       # Writes before turning the bus around for reads
system.mem_ctrls0.wrPerTurnAround::gmean    17.447469                       # Writes before turning the bus around for reads
system.mem_ctrls0.wrPerTurnAround::stdev     1.953787                       # Writes before turning the bus around for reads
system.mem_ctrls0.wrPerTurnAround::16              96     54.24%     54.24% # Writes before turning the bus around for reads
system.mem_ctrls0.wrPerTurnAround::18              25     14.12%     68.36% # Writes before turning the bus around for reads
system.mem_ctrls0.wrPerTurnAround::19              21     11.86%     80.23% # Writes before turning the bus around for reads
system.mem_ctrls0.wrPerTurnAround::20              25     14.12%     94.35% # Writes before turning the bus around for reads
system.mem_ctrls0.wrPerTurnAround::21               6      3.39%     97.74% # Writes before turning the bus around for reads
system.mem_ctrls0.wrPerTurnAround::22               2      1.13%     98.87% # Writes before turning the bus around for reads
system.mem_ctrls0.wrPerTurnAround::24               1      0.56%     99.44% # Writes before turning the bus around for reads
system.mem_ctrls0.wrPerTurnAround::27               1      0.56%    100.00% # Writes before turning the bus around for reads
system.mem_ctrls0.wrPerTurnAround::total          177                       # Writes before turning the bus around for reads
system.mem_ctrls0.totQLat                   100656000                       # Total ticks spent queuing
system.mem_ctrls0.totMemAccLat              289618500                       # Total ticks spent from burst creation until serviced by the DRAM
system.mem_ctrls0.totBusLat                  50390000                       # Total ticks spent in databus transfers
system.mem_ctrls0.avgQLat                     9987.70                       # Average queueing delay per DRAM burst
system.mem_ctrls0.avgBusLat                   5000.00                       # Average bus latency per DRAM burst
system.mem_ctrls0.avgMemAccLat               28737.70                       # Average memory access latency per DRAM burst
system.mem_ctrls0.avgRdBW                        0.16                       # Average DRAM read bandwidth in MiByte/s
system.mem_ctrls0.avgWrBW                        0.05                       # Average achieved write bandwidth in MiByte/s
system.mem_ctrls0.avgRdBWSys                     0.17                       # Average system read bandwidth in MiByte/s
system.mem_ctrls0.avgWrBWSys                     0.05                       # Average system write bandwidth in MiByte/s
system.mem_ctrls0.peakBW                     12800.00                       # Theoretical peak bandwidth in MiByte/s
system.mem_ctrls0.busUtil                        0.00                       # Data bus utilization in percentage
system.mem_ctrls0.busUtilRead                    0.00                       # Data bus utilization in percentage for reads
system.mem_ctrls0.busUtilWrite                   0.00                       # Data bus utilization in percentage for writes
system.mem_ctrls0.avgRdQLen                      1.00                       # Average read queue length when enqueuing
system.mem_ctrls0.avgWrQLen                     24.78                       # Average write queue length when enqueuing
system.mem_ctrls0.readRowHits                    6734                       # Number of row buffer hits during reads
system.mem_ctrls0.writeRowHits                   2050                       # Number of row buffer hits during writes
system.mem_ctrls0.readRowHitRate                66.82                       # Row buffer hit rate for reads
system.mem_ctrls0.writeRowHitRate               65.92                       # Row buffer hit rate for writes
system.mem_ctrls0.avgGap                 296381978.93                       # Average gap between requests
system.mem_ctrls0.pageHitRate                   66.61                       # Row buffer hit rate, read and write combined
system.mem_ctrls0_0.actEnergy                25008480                       # Energy for activate commands per rank (pJ)
system.mem_ctrls0_0.preEnergy                13645500                       # Energy for precharge commands per rank (pJ)
system.mem_ctrls0_0.readEnergy               68179800                       # Energy for read commands per rank (pJ)
system.mem_ctrls0_0.writeEnergy              10510560                       # Energy for write commands per rank (pJ)
system.mem_ctrls0_0.refreshEnergy        256589879520                       # Energy for refresh commands per rank (pJ)
system.mem_ctrls0_0.actBackEnergy         88220650185                       # Energy for active background per rank (pJ)
system.mem_ctrls0_0.preBackEnergy        2279707709250                       # Energy for precharge background per rank (pJ)
system.mem_ctrls0_0.totalEnergy          2624635583295                       # Total energy per rank (pJ)
system.mem_ctrls0_0.averagePower           668.102836                       # Core power per rank (mW)
system.mem_ctrls0_0.memoryStateTime::IDLE 3790481236250                       # Time in different power states
system.mem_ctrls0_0.memoryStateTime::REF 131054040000                       # Time in different power states
system.mem_ctrls0_0.memoryStateTime::PRE_PDN            0                       # Time in different power states
system.mem_ctrls0_0.memoryStateTime::ACT   3154751250                       # Time in different power states
system.mem_ctrls0_0.memoryStateTime::ACT_PDN            0                       # Time in different power states
system.mem_ctrls0_1.actEnergy                28009800                       # Energy for activate commands per rank (pJ)
system.mem_ctrls0_1.preEnergy                15283125                       # Energy for precharge commands per rank (pJ)
system.mem_ctrls0_1.readEnergy               70457400                       # Energy for read commands per rank (pJ)
system.mem_ctrls0_1.writeEnergy               9616320                       # Energy for write commands per rank (pJ)
system.mem_ctrls0_1.refreshEnergy        256589879520                       # Energy for refresh commands per rank (pJ)
system.mem_ctrls0_1.actBackEnergy         88810488180                       # Energy for active background per rank (pJ)
system.mem_ctrls0_1.preBackEnergy        2279190299250                       # Energy for precharge background per rank (pJ)
system.mem_ctrls0_1.totalEnergy          2624714033595                       # Total energy per rank (pJ)
system.mem_ctrls0_1.averagePower           668.122808                       # Core power per rank (mW)
system.mem_ctrls0_1.memoryStateTime::IDLE 3790094923250                       # Time in different power states
system.mem_ctrls0_1.memoryStateTime::REF 131054040000                       # Time in different power states
system.mem_ctrls0_1.memoryStateTime::PRE_PDN            0                       # Time in different power states
system.mem_ctrls0_1.memoryStateTime::ACT   3541480500                       # Time in different power states
system.mem_ctrls0_1.memoryStateTime::ACT_PDN            0                       # Time in different power states
system.mem_ctrls1.bytes_read::ruby.dir_cntrl1       604672                       # Number of bytes read from this memory
system.mem_ctrls1.bytes_read::total            604672                       # Number of bytes read from this memory
system.mem_ctrls1.bytes_written::ruby.dir_cntrl1       183680                       # Number of bytes written to this memory
system.mem_ctrls1.bytes_written::total         183680                       # Number of bytes written to this memory
system.mem_ctrls1.num_reads::ruby.dir_cntrl1         9448                       # Number of read requests responded to by this memory
system.mem_ctrls1.num_reads::total               9448                       # Number of read requests responded to by this memory
system.mem_ctrls1.num_writes::ruby.dir_cntrl1         2870                       # Number of write requests responded to by this memory
system.mem_ctrls1.num_writes::total              2870                       # Number of write requests responded to by this memory
system.mem_ctrls1.bw_read::ruby.dir_cntrl1       154069                       # Total read bandwidth from this memory (bytes/s)
system.mem_ctrls1.bw_read::total               154069                       # Total read bandwidth from this memory (bytes/s)
system.mem_ctrls1.bw_write::ruby.dir_cntrl1        46801                       # Write bandwidth from this memory (bytes/s)
system.mem_ctrls1.bw_write::total               46801                       # Write bandwidth from this memory (bytes/s)
system.mem_ctrls1.bw_total::ruby.dir_cntrl1       200870                       # Total bandwidth to/from this memory (bytes/s)
system.mem_ctrls1.bw_total::total              200870                       # Total bandwidth to/from this memory (bytes/s)
system.mem_ctrls1.readReqs                       9448                       # Number of read requests accepted
system.mem_ctrls1.writeReqs                      2870                       # Number of write requests accepted
system.mem_ctrls1.readBursts                     9448                       # Number of DRAM read bursts, including those serviced by the write queue
system.mem_ctrls1.writeBursts                    2870                       # Number of DRAM write bursts, including those merged in the write queue
system.mem_ctrls1.bytesReadDRAM                600000                       # Total number of bytes read from DRAM
system.mem_ctrls1.bytesReadWrQ                   4672                       # Total number of bytes read from write queue
system.mem_ctrls1.bytesWritten                 181952                       # Total number of bytes written to DRAM
system.mem_ctrls1.bytesReadSys                 604672                       # Total read bytes from the system interface side
system.mem_ctrls1.bytesWrittenSys              183680                       # Total written bytes from the system interface side
system.mem_ctrls1.servicedByWrQ                    73                       # Number of DRAM read bursts serviced by the write queue
system.mem_ctrls1.mergedWrBursts                   25                       # Number of DRAM write bursts merged with an existing one
system.mem_ctrls1.neitherReadNorWriteReqs            0                       # Number of requests that are neither read nor write
system.mem_ctrls1.perBankRdBursts::0              866                       # Per bank write bursts
system.mem_ctrls1.perBankRdBursts::1              631                       # Per bank write bursts
system.mem_ctrls1.perBankRdBursts::2              440                       # Per bank write bursts
system.mem_ctrls1.perBankRdBursts::3              538                       # Per bank write bursts
system.mem_ctrls1.perBankRdBursts::4              521                       # Per bank write bursts
system.mem_ctrls1.perBankRdBursts::5              639                       # Per bank write bursts
system.mem_ctrls1.perBankRdBursts::6              472                       # Per bank write bursts
system.mem_ctrls1.perBankRdBursts::7              798                       # Per bank write bursts
system.mem_ctrls1.perBankRdBursts::8              440                       # Per bank write bursts
system.mem_ctrls1.perBankRdBursts::9              690                       # Per bank write bursts
system.mem_ctrls1.perBankRdBursts::10             691                       # Per bank write bursts
system.mem_ctrls1.perBankRdBursts::11             460                       # Per bank write bursts
system.mem_ctrls1.perBankRdBursts::12             555                       # Per bank write bursts
system.mem_ctrls1.perBankRdBursts::13             402                       # Per bank write bursts
system.mem_ctrls1.perBankRdBursts::14             525                       # Per bank write bursts
system.mem_ctrls1.perBankRdBursts::15             707                       # Per bank write bursts
system.mem_ctrls1.perBankWrBursts::0              460                       # Per bank write bursts
system.mem_ctrls1.perBankWrBursts::1              226                       # Per bank write bursts
system.mem_ctrls1.perBankWrBursts::2              315                       # Per bank write bursts
system.mem_ctrls1.perBankWrBursts::3              162                       # Per bank write bursts
system.mem_ctrls1.perBankWrBursts::4               19                       # Per bank write bursts
system.mem_ctrls1.perBankWrBursts::5               56                       # Per bank write bursts
system.mem_ctrls1.perBankWrBursts::6               70                       # Per bank write bursts
system.mem_ctrls1.perBankWrBursts::7              179                       # Per bank write bursts
system.mem_ctrls1.perBankWrBursts::8              136                       # Per bank write bursts
system.mem_ctrls1.perBankWrBursts::9              212                       # Per bank write bursts
system.mem_ctrls1.perBankWrBursts::10             272                       # Per bank write bursts
system.mem_ctrls1.perBankWrBursts::11             164                       # Per bank write bursts
system.mem_ctrls1.perBankWrBursts::12             178                       # Per bank write bursts
system.mem_ctrls1.perBankWrBursts::13             112                       # Per bank write bursts
system.mem_ctrls1.perBankWrBursts::14              38                       # Per bank write bursts
system.mem_ctrls1.perBankWrBursts::15             244                       # Per bank write bursts
system.mem_ctrls1.numRdRetry                        0                       # Number of times read queue was full causing retry
system.mem_ctrls1.numWrRetry                        0                       # Number of times write queue was full causing retry
system.mem_ctrls1.totGap                 3924690462500                       # Total gap between requests
system.mem_ctrls1.readPktSize::0                    0                       # Read request sizes (log2)
system.mem_ctrls1.readPktSize::1                    0                       # Read request sizes (log2)
system.mem_ctrls1.readPktSize::2                    0                       # Read request sizes (log2)
system.mem_ctrls1.readPktSize::3                    0                       # Read request sizes (log2)
system.mem_ctrls1.readPktSize::4                    0                       # Read request sizes (log2)
system.mem_ctrls1.readPktSize::5                    0                       # Read request sizes (log2)
system.mem_ctrls1.readPktSize::6                 9448                       # Read request sizes (log2)
system.mem_ctrls1.writePktSize::0                   0                       # Write request sizes (log2)
system.mem_ctrls1.writePktSize::1                   0                       # Write request sizes (log2)
system.mem_ctrls1.writePktSize::2                   0                       # Write request sizes (log2)
system.mem_ctrls1.writePktSize::3                   0                       # Write request sizes (log2)
system.mem_ctrls1.writePktSize::4                   0                       # Write request sizes (log2)
system.mem_ctrls1.writePktSize::5                   0                       # Write request sizes (log2)
system.mem_ctrls1.writePktSize::6                2870                       # Write request sizes (log2)
system.mem_ctrls1.rdQLenPdf::0                   9349                       # What read queue length does an incoming req see
system.mem_ctrls1.rdQLenPdf::1                     26                       # What read queue length does an incoming req see
system.mem_ctrls1.rdQLenPdf::2                      0                       # What read queue length does an incoming req see
system.mem_ctrls1.rdQLenPdf::3                      0                       # What read queue length does an incoming req see
system.mem_ctrls1.rdQLenPdf::4                      0                       # What read queue length does an incoming req see
system.mem_ctrls1.rdQLenPdf::5                      0                       # What read queue length does an incoming req see
system.mem_ctrls1.rdQLenPdf::6                      0                       # What read queue length does an incoming req see
system.mem_ctrls1.rdQLenPdf::7                      0                       # What read queue length does an incoming req see
system.mem_ctrls1.rdQLenPdf::8                      0                       # What read queue length does an incoming req see
system.mem_ctrls1.rdQLenPdf::9                      0                       # What read queue length does an incoming req see
system.mem_ctrls1.rdQLenPdf::10                     0                       # What read queue length does an incoming req see
system.mem_ctrls1.rdQLenPdf::11                     0                       # What read queue length does an incoming req see
system.mem_ctrls1.rdQLenPdf::12                     0                       # What read queue length does an incoming req see
system.mem_ctrls1.rdQLenPdf::13                     0                       # What read queue length does an incoming req see
system.mem_ctrls1.rdQLenPdf::14                     0                       # What read queue length does an incoming req see
system.mem_ctrls1.rdQLenPdf::15                     0                       # What read queue length does an incoming req see
system.mem_ctrls1.rdQLenPdf::16                     0                       # What read queue length does an incoming req see
system.mem_ctrls1.rdQLenPdf::17                     0                       # What read queue length does an incoming req see
system.mem_ctrls1.rdQLenPdf::18                     0                       # What read queue length does an incoming req see
system.mem_ctrls1.rdQLenPdf::19                     0                       # What read queue length does an incoming req see
system.mem_ctrls1.rdQLenPdf::20                     0                       # What read queue length does an incoming req see
system.mem_ctrls1.rdQLenPdf::21                     0                       # What read queue length does an incoming req see
system.mem_ctrls1.rdQLenPdf::22                     0                       # What read queue length does an incoming req see
system.mem_ctrls1.rdQLenPdf::23                     0                       # What read queue length does an incoming req see
system.mem_ctrls1.rdQLenPdf::24                     0                       # What read queue length does an incoming req see
system.mem_ctrls1.rdQLenPdf::25                     0                       # What read queue length does an incoming req see
system.mem_ctrls1.rdQLenPdf::26                     0                       # What read queue length does an incoming req see
system.mem_ctrls1.rdQLenPdf::27                     0                       # What read queue length does an incoming req see
system.mem_ctrls1.rdQLenPdf::28                     0                       # What read queue length does an incoming req see
system.mem_ctrls1.rdQLenPdf::29                     0                       # What read queue length does an incoming req see
system.mem_ctrls1.rdQLenPdf::30                     0                       # What read queue length does an incoming req see
system.mem_ctrls1.rdQLenPdf::31                     0                       # What read queue length does an incoming req see
system.mem_ctrls1.wrQLenPdf::0                      0                       # What write queue length does an incoming req see
system.mem_ctrls1.wrQLenPdf::1                      0                       # What write queue length does an incoming req see
system.mem_ctrls1.wrQLenPdf::2                      0                       # What write queue length does an incoming req see
system.mem_ctrls1.wrQLenPdf::3                      0                       # What write queue length does an incoming req see
system.mem_ctrls1.wrQLenPdf::4                      0                       # What write queue length does an incoming req see
system.mem_ctrls1.wrQLenPdf::5                      0                       # What write queue length does an incoming req see
system.mem_ctrls1.wrQLenPdf::6                      0                       # What write queue length does an incoming req see
system.mem_ctrls1.wrQLenPdf::7                      0                       # What write queue length does an incoming req see
system.mem_ctrls1.wrQLenPdf::8                      0                       # What write queue length does an incoming req see
system.mem_ctrls1.wrQLenPdf::9                      0                       # What write queue length does an incoming req see
system.mem_ctrls1.wrQLenPdf::10                     0                       # What write queue length does an incoming req see
system.mem_ctrls1.wrQLenPdf::11                     0                       # What write queue length does an incoming req see
system.mem_ctrls1.wrQLenPdf::12                     0                       # What write queue length does an incoming req see
system.mem_ctrls1.wrQLenPdf::13                     0                       # What write queue length does an incoming req see
system.mem_ctrls1.wrQLenPdf::14                     0                       # What write queue length does an incoming req see
system.mem_ctrls1.wrQLenPdf::15                    71                       # What write queue length does an incoming req see
system.mem_ctrls1.wrQLenPdf::16                    78                       # What write queue length does an incoming req see
system.mem_ctrls1.wrQLenPdf::17                   173                       # What write queue length does an incoming req see
system.mem_ctrls1.wrQLenPdf::18                   165                       # What write queue length does an incoming req see
system.mem_ctrls1.wrQLenPdf::19                   177                       # What write queue length does an incoming req see
system.mem_ctrls1.wrQLenPdf::20                   169                       # What write queue length does an incoming req see
system.mem_ctrls1.wrQLenPdf::21                   178                       # What write queue length does an incoming req see
system.mem_ctrls1.wrQLenPdf::22                   183                       # What write queue length does an incoming req see
system.mem_ctrls1.wrQLenPdf::23                   165                       # What write queue length does an incoming req see
system.mem_ctrls1.wrQLenPdf::24                   166                       # What write queue length does an incoming req see
system.mem_ctrls1.wrQLenPdf::25                   166                       # What write queue length does an incoming req see
system.mem_ctrls1.wrQLenPdf::26                   164                       # What write queue length does an incoming req see
system.mem_ctrls1.wrQLenPdf::27                   169                       # What write queue length does an incoming req see
system.mem_ctrls1.wrQLenPdf::28                   162                       # What write queue length does an incoming req see
system.mem_ctrls1.wrQLenPdf::29                   166                       # What write queue length does an incoming req see
system.mem_ctrls1.wrQLenPdf::30                   164                       # What write queue length does an incoming req see
system.mem_ctrls1.wrQLenPdf::31                   163                       # What write queue length does an incoming req see
system.mem_ctrls1.wrQLenPdf::32                   163                       # What write queue length does an incoming req see
system.mem_ctrls1.wrQLenPdf::33                     3                       # What write queue length does an incoming req see
system.mem_ctrls1.wrQLenPdf::34                     0                       # What write queue length does an incoming req see
system.mem_ctrls1.wrQLenPdf::35                     0                       # What write queue length does an incoming req see
system.mem_ctrls1.wrQLenPdf::36                     0                       # What write queue length does an incoming req see
system.mem_ctrls1.wrQLenPdf::37                     0                       # What write queue length does an incoming req see
system.mem_ctrls1.wrQLenPdf::38                     0                       # What write queue length does an incoming req see
system.mem_ctrls1.wrQLenPdf::39                     0                       # What write queue length does an incoming req see
system.mem_ctrls1.wrQLenPdf::40                     0                       # What write queue length does an incoming req see
system.mem_ctrls1.wrQLenPdf::41                     0                       # What write queue length does an incoming req see
system.mem_ctrls1.wrQLenPdf::42                     0                       # What write queue length does an incoming req see
system.mem_ctrls1.wrQLenPdf::43                     0                       # What write queue length does an incoming req see
system.mem_ctrls1.wrQLenPdf::44                     0                       # What write queue length does an incoming req see
system.mem_ctrls1.wrQLenPdf::45                     0                       # What write queue length does an incoming req see
system.mem_ctrls1.wrQLenPdf::46                     0                       # What write queue length does an incoming req see
system.mem_ctrls1.wrQLenPdf::47                     0                       # What write queue length does an incoming req see
system.mem_ctrls1.wrQLenPdf::48                     0                       # What write queue length does an incoming req see
system.mem_ctrls1.wrQLenPdf::49                     0                       # What write queue length does an incoming req see
system.mem_ctrls1.wrQLenPdf::50                     0                       # What write queue length does an incoming req see
system.mem_ctrls1.wrQLenPdf::51                     0                       # What write queue length does an incoming req see
system.mem_ctrls1.wrQLenPdf::52                     0                       # What write queue length does an incoming req see
system.mem_ctrls1.wrQLenPdf::53                     0                       # What write queue length does an incoming req see
system.mem_ctrls1.wrQLenPdf::54                     0                       # What write queue length does an incoming req see
system.mem_ctrls1.wrQLenPdf::55                     0                       # What write queue length does an incoming req see
system.mem_ctrls1.wrQLenPdf::56                     0                       # What write queue length does an incoming req see
system.mem_ctrls1.wrQLenPdf::57                     0                       # What write queue length does an incoming req see
system.mem_ctrls1.wrQLenPdf::58                     0                       # What write queue length does an incoming req see
system.mem_ctrls1.wrQLenPdf::59                     0                       # What write queue length does an incoming req see
system.mem_ctrls1.wrQLenPdf::60                     0                       # What write queue length does an incoming req see
system.mem_ctrls1.wrQLenPdf::61                     0                       # What write queue length does an incoming req see
system.mem_ctrls1.wrQLenPdf::62                     0                       # What write queue length does an incoming req see
system.mem_ctrls1.wrQLenPdf::63                     0                       # What write queue length does an incoming req see
system.mem_ctrls1.bytesPerActivate::samples         3776                       # Bytes accessed per row activation
system.mem_ctrls1.bytesPerActivate::mean   207.067797                       # Bytes accessed per row activation
system.mem_ctrls1.bytesPerActivate::gmean   120.491463                       # Bytes accessed per row activation
system.mem_ctrls1.bytesPerActivate::stdev   277.038942                       # Bytes accessed per row activation
system.mem_ctrls1.bytesPerActivate::0-127         2214     58.63%     58.63% # Bytes accessed per row activation
system.mem_ctrls1.bytesPerActivate::128-255          746     19.76%     78.39% # Bytes accessed per row activation
system.mem_ctrls1.bytesPerActivate::256-383          238      6.30%     84.69% # Bytes accessed per row activation
system.mem_ctrls1.bytesPerActivate::384-511           96      2.54%     87.24% # Bytes accessed per row activation
system.mem_ctrls1.bytesPerActivate::512-639           75      1.99%     89.22% # Bytes accessed per row activation
system.mem_ctrls1.bytesPerActivate::640-767           58      1.54%     90.76% # Bytes accessed per row activation
system.mem_ctrls1.bytesPerActivate::768-895           37      0.98%     91.74% # Bytes accessed per row activation
system.mem_ctrls1.bytesPerActivate::896-1023           43      1.14%     92.88% # Bytes accessed per row activation
system.mem_ctrls1.bytesPerActivate::1024-1151          269      7.12%    100.00% # Bytes accessed per row activation
system.mem_ctrls1.bytesPerActivate::total         3776                       # Bytes accessed per row activation
system.mem_ctrls1.rdPerTurnAround::samples          162                       # Reads before turning the bus around for writes
system.mem_ctrls1.rdPerTurnAround::mean    105.104938                       # Reads before turning the bus around for writes
system.mem_ctrls1.rdPerTurnAround::stdev   645.092247                       # Reads before turning the bus around for writes
system.mem_ctrls1.rdPerTurnAround::0-255          154     95.06%     95.06% # Reads before turning the bus around for writes
system.mem_ctrls1.rdPerTurnAround::256-511            6      3.70%     98.77% # Reads before turning the bus around for writes
system.mem_ctrls1.rdPerTurnAround::512-767            1      0.62%     99.38% # Reads before turning the bus around for writes
system.mem_ctrls1.rdPerTurnAround::7936-8191            1      0.62%    100.00% # Reads before turning the bus around for writes
system.mem_ctrls1.rdPerTurnAround::total          162                       # Reads before turning the bus around for writes
system.mem_ctrls1.wrPerTurnAround::samples          162                       # Writes before turning the bus around for reads
system.mem_ctrls1.wrPerTurnAround::mean     17.549383                       # Writes before turning the bus around for reads
system.mem_ctrls1.wrPerTurnAround::gmean    17.453379                       # Writes before turning the bus around for reads
system.mem_ctrls1.wrPerTurnAround::stdev     1.878457                       # Writes before turning the bus around for reads
system.mem_ctrls1.wrPerTurnAround::16              90     55.56%     55.56% # Writes before turning the bus around for reads
system.mem_ctrls1.wrPerTurnAround::18              15      9.26%     64.81% # Writes before turning the bus around for reads
system.mem_ctrls1.wrPerTurnAround::19              21     12.96%     77.78% # Writes before turning the bus around for reads
system.mem_ctrls1.wrPerTurnAround::20              25     15.43%     93.21% # Writes before turning the bus around for reads
system.mem_ctrls1.wrPerTurnAround::21               8      4.94%     98.15% # Writes before turning the bus around for reads
system.mem_ctrls1.wrPerTurnAround::22               3      1.85%    100.00% # Writes before turning the bus around for reads
system.mem_ctrls1.wrPerTurnAround::total          162                       # Writes before turning the bus around for reads
system.mem_ctrls1.totQLat                    90461000                       # Total ticks spent queuing
system.mem_ctrls1.totMemAccLat              266242250                       # Total ticks spent from burst creation until serviced by the DRAM
system.mem_ctrls1.totBusLat                  46875000                       # Total ticks spent in databus transfers
system.mem_ctrls1.avgQLat                     9649.17                       # Average queueing delay per DRAM burst
system.mem_ctrls1.avgBusLat                   5000.00                       # Average bus latency per DRAM burst
system.mem_ctrls1.avgMemAccLat               28399.17                       # Average memory access latency per DRAM burst
system.mem_ctrls1.avgRdBW                        0.15                       # Average DRAM read bandwidth in MiByte/s
system.mem_ctrls1.avgWrBW                        0.05                       # Average achieved write bandwidth in MiByte/s
system.mem_ctrls1.avgRdBWSys                     0.15                       # Average system read bandwidth in MiByte/s
system.mem_ctrls1.avgWrBWSys                     0.05                       # Average system write bandwidth in MiByte/s
system.mem_ctrls1.peakBW                     12800.00                       # Theoretical peak bandwidth in MiByte/s
system.mem_ctrls1.busUtil                        0.00                       # Data bus utilization in percentage
system.mem_ctrls1.busUtilRead                    0.00                       # Data bus utilization in percentage for reads
system.mem_ctrls1.busUtilWrite                   0.00                       # Data bus utilization in percentage for writes
system.mem_ctrls1.avgRdQLen                      1.00                       # Average read queue length when enqueuing
system.mem_ctrls1.avgWrQLen                     25.85                       # Average write queue length when enqueuing
system.mem_ctrls1.readRowHits                    6446                       # Number of row buffer hits during reads
system.mem_ctrls1.writeRowHits                   1996                       # Number of row buffer hits during writes
system.mem_ctrls1.readRowHitRate                68.76                       # Row buffer hit rate for reads
system.mem_ctrls1.writeRowHitRate               70.16                       # Row buffer hit rate for writes
system.mem_ctrls1.avgGap                 318614260.63                       # Average gap between requests
system.mem_ctrls1.pageHitRate                   69.08                       # Row buffer hit rate, read and write combined
system.mem_ctrls1_0.actEnergy                22438080                       # Energy for activate commands per rank (pJ)
system.mem_ctrls1_0.preEnergy                12243000                       # Energy for precharge commands per rank (pJ)
system.mem_ctrls1_0.readEnergy               65488800                       # Energy for read commands per rank (pJ)
system.mem_ctrls1_0.writeEnergy               9635760                       # Energy for write commands per rank (pJ)
system.mem_ctrls1_0.refreshEnergy        256589879520                       # Energy for refresh commands per rank (pJ)
system.mem_ctrls1_0.actBackEnergy         88232603085                       # Energy for active background per rank (pJ)
system.mem_ctrls1_0.preBackEnergy        2279697216000                       # Energy for precharge background per rank (pJ)
system.mem_ctrls1_0.totalEnergy          2624629504245                       # Total energy per rank (pJ)
system.mem_ctrls1_0.averagePower           668.101291                       # Core power per rank (mW)
system.mem_ctrls1_0.memoryStateTime::IDLE 3790578410750                       # Time in different power states
system.mem_ctrls1_0.memoryStateTime::REF 131054040000                       # Time in different power states
system.mem_ctrls1_0.memoryStateTime::PRE_PDN            0                       # Time in different power states
system.mem_ctrls1_0.memoryStateTime::ACT   3057624750                       # Time in different power states
system.mem_ctrls1_0.memoryStateTime::ACT_PDN            0                       # Time in different power states
system.mem_ctrls1_1.actEnergy                25613280                       # Energy for activate commands per rank (pJ)
system.mem_ctrls1_1.preEnergy                13975500                       # Energy for precharge commands per rank (pJ)
system.mem_ctrls1_1.readEnergy               67384200                       # Energy for read commands per rank (pJ)
system.mem_ctrls1_1.writeEnergy               8786880                       # Energy for write commands per rank (pJ)
system.mem_ctrls1_1.refreshEnergy        256589879520                       # Energy for refresh commands per rank (pJ)
system.mem_ctrls1_1.actBackEnergy         88726339080                       # Energy for active background per rank (pJ)
system.mem_ctrls1_1.preBackEnergy        2279264122500                       # Energy for precharge background per rank (pJ)
system.mem_ctrls1_1.totalEnergy          2624696100960                       # Total energy per rank (pJ)
system.mem_ctrls1_1.averagePower           668.118241                       # Core power per rank (mW)
system.mem_ctrls1_1.memoryStateTime::IDLE 3790225565500                       # Time in different power states
system.mem_ctrls1_1.memoryStateTime::REF 131054040000                       # Time in different power states
system.mem_ctrls1_1.memoryStateTime::PRE_PDN            0                       # Time in different power states
system.mem_ctrls1_1.memoryStateTime::ACT   3410852000                       # Time in different power states
system.mem_ctrls1_1.memoryStateTime::ACT_PDN            0                       # Time in different power states
system.cpu_voltage_domain.voltage                   1                       # Voltage in Volts
system.cpu_clk_domain.clock                       500                       # Clock period in ticks
system.cpu0.apic_clk_domain.clock                8000                       # Clock period in ticks
system.cpu0.numCycles                      7849798064                       # number of cpu cycles simulated
system.cpu0.numWorkItemsStarted                     0                       # number of work items this cpu started
system.cpu0.numWorkItemsCompleted                   0                       # number of work items this cpu completed
system.cpu0.kern.inst.arm                           0                       # number of arm instructions executed
system.cpu0.kern.inst.quiesce                       0                       # number of quiesce instructions executed
system.cpu0.committedInsts                   19776722                       # Number of instructions committed
system.cpu0.committedOps                     35167731                       # Number of ops (including micro ops) committed
system.cpu0.num_int_alu_accesses             29756143                       # Number of integer alu accesses
system.cpu0.num_fp_alu_accesses               8399337                       # Number of float alu accesses
system.cpu0.num_func_calls                     629049                       # number of times a function call or return occured
system.cpu0.num_conditional_control_insts      2093057                       # number of instructions that are conditional controls
system.cpu0.num_int_insts                    29756143                       # number of integer instructions
system.cpu0.num_fp_insts                      8399337                       # number of float instructions
system.cpu0.num_int_register_reads           57498043                       # number of times the integer registers were read
system.cpu0.num_int_register_writes          22691594                       # number of times the integer registers were written
system.cpu0.num_fp_register_reads            14064330                       # number of times the floating registers were read
system.cpu0.num_fp_register_writes            7474281                       # number of times the floating registers were written
system.cpu0.num_cc_register_reads            14473628                       # number of times the CC registers were read
system.cpu0.num_cc_register_writes           10612147                       # number of times the CC registers were written
system.cpu0.num_mem_refs                      7877402                       # number of memory refs
system.cpu0.num_load_insts                    5833238                       # Number of load instructions
system.cpu0.num_store_insts                   2044164                       # Number of store instructions
system.cpu0.num_idle_cycles              7769092732.585954                       # Number of idle cycles
system.cpu0.num_busy_cycles              80705331.414046                       # Number of busy cycles
system.cpu0.not_idle_fraction                0.010281                       # Percentage of non-idle cycles
system.cpu0.idle_fraction                    0.989719                       # Percentage of idle cycles
system.cpu0.Branches                          2883078                       # Number of branches fetched
system.cpu0.op_class::No_OpClass               130703      0.37%      0.37% # Class of executed instruction
system.cpu0.op_class::IntAlu                 23285347     66.21%     66.58% # Class of executed instruction
system.cpu0.op_class::IntMult                  214742      0.61%     67.19% # Class of executed instruction
system.cpu0.op_class::IntDiv                    41373      0.12%     67.31% # Class of executed instruction
system.cpu0.op_class::FloatAdd                3618219     10.29%     77.60% # Class of executed instruction
system.cpu0.op_class::FloatCmp                      0      0.00%     77.60% # Class of executed instruction
system.cpu0.op_class::FloatCvt                      0      0.00%     77.60% # Class of executed instruction
system.cpu0.op_class::FloatMult                     0      0.00%     77.60% # Class of executed instruction
system.cpu0.op_class::FloatDiv                      0      0.00%     77.60% # Class of executed instruction
system.cpu0.op_class::FloatSqrt                     0      0.00%     77.60% # Class of executed instruction
system.cpu0.op_class::SimdAdd                       0      0.00%     77.60% # Class of executed instruction
system.cpu0.op_class::SimdAddAcc                    0      0.00%     77.60% # Class of executed instruction
system.cpu0.op_class::SimdAlu                       0      0.00%     77.60% # Class of executed instruction
system.cpu0.op_class::SimdCmp                       0      0.00%     77.60% # Class of executed instruction
system.cpu0.op_class::SimdCvt                       0      0.00%     77.60% # Class of executed instruction
system.cpu0.op_class::SimdMisc                      0      0.00%     77.60% # Class of executed instruction
system.cpu0.op_class::SimdMult                      0      0.00%     77.60% # Class of executed instruction
system.cpu0.op_class::SimdMultAcc                   0      0.00%     77.60% # Class of executed instruction
system.cpu0.op_class::SimdShift                     0      0.00%     77.60% # Class of executed instruction
system.cpu0.op_class::SimdShiftAcc                  0      0.00%     77.60% # Class of executed instruction
system.cpu0.op_class::SimdSqrt                      0      0.00%     77.60% # Class of executed instruction
system.cpu0.op_class::SimdFloatAdd                  0      0.00%     77.60% # Class of executed instruction
system.cpu0.op_class::SimdFloatAlu                  0      0.00%     77.60% # Class of executed instruction
system.cpu0.op_class::SimdFloatCmp                  0      0.00%     77.60% # Class of executed instruction
system.cpu0.op_class::SimdFloatCvt                  0      0.00%     77.60% # Class of executed instruction
system.cpu0.op_class::SimdFloatDiv                  0      0.00%     77.60% # Class of executed instruction
system.cpu0.op_class::SimdFloatMisc                 0      0.00%     77.60% # Class of executed instruction
system.cpu0.op_class::SimdFloatMult                 0      0.00%     77.60% # Class of executed instruction
system.cpu0.op_class::SimdFloatMultAcc              0      0.00%     77.60% # Class of executed instruction
system.cpu0.op_class::SimdFloatSqrt                 0      0.00%     77.60% # Class of executed instruction
system.cpu0.op_class::MemRead                 5833238     16.59%     94.19% # Class of executed instruction
system.cpu0.op_class::MemWrite                2044164      5.81%    100.00% # Class of executed instruction
system.cpu0.op_class::IprAccess                     0      0.00%    100.00% # Class of executed instruction
system.cpu0.op_class::InstPrefetch                  0      0.00%    100.00% # Class of executed instruction
system.cpu0.op_class::total                  35167786                       # Class of executed instruction
system.cpu1.apic_clk_domain.clock                8000                       # Clock period in ticks
system.cpu1.numCycles                      7850987953                       # number of cpu cycles simulated
system.cpu1.numWorkItemsStarted                     0                       # number of work items this cpu started
system.cpu1.numWorkItemsCompleted                   0                       # number of work items this cpu completed
system.cpu1.kern.inst.arm                           0                       # number of arm instructions executed
system.cpu1.kern.inst.quiesce                       0                       # number of quiesce instructions executed
system.cpu1.committedInsts                 1994112420                       # Number of instructions committed
system.cpu1.committedOps                   3392169370                       # Number of ops (including micro ops) committed
system.cpu1.num_int_alu_accesses           2756828765                       # Number of integer alu accesses
system.cpu1.num_fp_alu_accesses            1010088517                       # Number of float alu accesses
system.cpu1.num_func_calls                   49914175                       # number of times a function call or return occured
system.cpu1.num_conditional_control_insts    199783515                       # number of instructions that are conditional controls
system.cpu1.num_int_insts                  2756828765                       # number of integer instructions
system.cpu1.num_fp_insts                   1010088517                       # number of float instructions
system.cpu1.num_int_register_reads         5216833080                       # number of times the integer registers were read
system.cpu1.num_int_register_writes        2052002841                       # number of times the integer registers were written
system.cpu1.num_fp_register_reads          1701898740                       # number of times the floating registers were read
system.cpu1.num_fp_register_writes          899765659                       # number of times the floating registers were written
system.cpu1.num_cc_register_reads          1288279773                       # number of times the CC registers were read
system.cpu1.num_cc_register_writes         1039129700                       # number of times the CC registers were written
system.cpu1.num_mem_refs                    738078489                       # number of memory refs
system.cpu1.num_load_insts                  571711858                       # Number of load instructions
system.cpu1.num_store_insts                 166366631                       # Number of store instructions
system.cpu1.num_idle_cycles              69626676.456562                       # Number of idle cycles
system.cpu1.num_busy_cycles              7781361276.543439                       # Number of busy cycles
system.cpu1.not_idle_fraction                0.991131                       # Percentage of non-idle cycles
system.cpu1.idle_fraction                    0.008869                       # Percentage of idle cycles
system.cpu1.Branches                        261103423                       # Number of branches fetched
system.cpu1.op_class::No_OpClass              1507165      0.04%      0.04% # Class of executed instruction
system.cpu1.op_class::IntAlu               2188713644     64.52%     64.57% # Class of executed instruction
system.cpu1.op_class::IntMult                24040563      0.71%     65.28% # Class of executed instruction
system.cpu1.op_class::IntDiv                   210297      0.01%     65.28% # Class of executed instruction
system.cpu1.op_class::FloatAdd              439619365     12.96%     78.24% # Class of executed instruction
system.cpu1.op_class::FloatCmp                      0      0.00%     78.24% # Class of executed instruction
system.cpu1.op_class::FloatCvt                      0      0.00%     78.24% # Class of executed instruction
system.cpu1.op_class::FloatMult                     0      0.00%     78.24% # Class of executed instruction
system.cpu1.op_class::FloatDiv                      0      0.00%     78.24% # Class of executed instruction
system.cpu1.op_class::FloatSqrt                     0      0.00%     78.24% # Class of executed instruction
system.cpu1.op_class::SimdAdd                       0      0.00%     78.24% # Class of executed instruction
system.cpu1.op_class::SimdAddAcc                    0      0.00%     78.24% # Class of executed instruction
system.cpu1.op_class::SimdAlu                       0      0.00%     78.24% # Class of executed instruction
system.cpu1.op_class::SimdCmp                       0      0.00%     78.24% # Class of executed instruction
system.cpu1.op_class::SimdCvt                       0      0.00%     78.24% # Class of executed instruction
system.cpu1.op_class::SimdMisc                      0      0.00%     78.24% # Class of executed instruction
system.cpu1.op_class::SimdMult                      0      0.00%     78.24% # Class of executed instruction
system.cpu1.op_class::SimdMultAcc                   0      0.00%     78.24% # Class of executed instruction
system.cpu1.op_class::SimdShift                     0      0.00%     78.24% # Class of executed instruction
system.cpu1.op_class::SimdShiftAcc                  0      0.00%     78.24% # Class of executed instruction
system.cpu1.op_class::SimdSqrt                      0      0.00%     78.24% # Class of executed instruction
system.cpu1.op_class::SimdFloatAdd                  0      0.00%     78.24% # Class of executed instruction
system.cpu1.op_class::SimdFloatAlu                  0      0.00%     78.24% # Class of executed instruction
system.cpu1.op_class::SimdFloatCmp                  0      0.00%     78.24% # Class of executed instruction
system.cpu1.op_class::SimdFloatCvt                  0      0.00%     78.24% # Class of executed instruction
system.cpu1.op_class::SimdFloatDiv                  0      0.00%     78.24% # Class of executed instruction
system.cpu1.op_class::SimdFloatMisc                 0      0.00%     78.24% # Class of executed instruction
system.cpu1.op_class::SimdFloatMult                 0      0.00%     78.24% # Class of executed instruction
system.cpu1.op_class::SimdFloatMultAcc              0      0.00%     78.24% # Class of executed instruction
system.cpu1.op_class::SimdFloatSqrt                 0      0.00%     78.24% # Class of executed instruction
system.cpu1.op_class::MemRead               571711858     16.85%     95.10% # Class of executed instruction
system.cpu1.op_class::MemWrite              166366631      4.90%    100.00% # Class of executed instruction
system.cpu1.op_class::IprAccess                     0      0.00%    100.00% # Class of executed instruction
system.cpu1.op_class::InstPrefetch                  0      0.00%    100.00% # Class of executed instruction
system.cpu1.op_class::total                3392169523                       # Class of executed instruction
system.cpu2.apic_clk_domain.clock                8000                       # Clock period in ticks
system.cpu2.numCycles                      7844337130                       # number of cpu cycles simulated
system.cpu2.numWorkItemsStarted                     0                       # number of work items this cpu started
system.cpu2.numWorkItemsCompleted                   0                       # number of work items this cpu completed
system.cpu2.kern.inst.arm                           0                       # number of arm instructions executed
system.cpu2.kern.inst.quiesce                       0                       # number of quiesce instructions executed
system.cpu2.committedInsts                    2800095                       # Number of instructions committed
system.cpu2.committedOps                      6040248                       # Number of ops (including micro ops) committed
system.cpu2.num_int_alu_accesses              5906630                       # Number of integer alu accesses
system.cpu2.num_fp_alu_accesses                     0                       # Number of float alu accesses
system.cpu2.num_func_calls                     165877                       # number of times a function call or return occured
system.cpu2.num_conditional_control_insts       426752                       # number of instructions that are conditional controls
system.cpu2.num_int_insts                     5906630                       # number of integer instructions
system.cpu2.num_fp_insts                            0                       # number of float instructions
system.cpu2.num_int_register_reads           11997109                       # number of times the integer registers were read
system.cpu2.num_int_register_writes           4903691                       # number of times the integer registers were written
system.cpu2.num_fp_register_reads                   0                       # number of times the floating registers were read
system.cpu2.num_fp_register_writes                  0                       # number of times the floating registers were written
system.cpu2.num_cc_register_reads             3412042                       # number of times the CC registers were read
system.cpu2.num_cc_register_writes            1794308                       # number of times the CC registers were written
system.cpu2.num_mem_refs                      1436018                       # number of memory refs
system.cpu2.num_load_insts                     894832                       # Number of load instructions
system.cpu2.num_store_insts                    541186                       # Number of store instructions
system.cpu2.num_idle_cycles              7830879843.555792                       # Number of idle cycles
system.cpu2.num_busy_cycles              13457286.444209                       # Number of busy cycles
system.cpu2.not_idle_fraction                0.001716                       # Percentage of non-idle cycles
system.cpu2.idle_fraction                    0.998284                       # Percentage of idle cycles
system.cpu2.Branches                           646389                       # Number of branches fetched
system.cpu2.op_class::No_OpClass               113657      1.88%      1.88% # Class of executed instruction
system.cpu2.op_class::IntAlu                  4438220     73.48%     75.36% # Class of executed instruction
system.cpu2.op_class::IntMult                   12283      0.20%     75.56% # Class of executed instruction
system.cpu2.op_class::IntDiv                    40076      0.66%     76.23% # Class of executed instruction
[...]
system.ruby.L1Cache_Controller.Ack_all::total        22116                      
system.ruby.L1Cache_Controller.WB_Ack    |      107747      1.31%      1.31% |     8006694     97.22%     98.52% |       46856      0.57%     99.09% |       74639      0.91%    100.00%
system.ruby.L1Cache_Controller.WB_Ack::total      8235936                      
system.ruby.L1Cache_Controller.I.Load    |      140245      2.17%      2.17% |     6092199     94.30%     96.47% |       96938      1.50%     97.97% |      130920      2.03%    100.00%
system.ruby.L1Cache_Controller.I.Load::total      6460302                      
system.ruby.L1Cache_Controller.I.Store   |       35627      1.32%      1.32% |     2621478     97.19%     98.51% |       17265      0.64%     99.15% |       22869      0.85%    100.00%
system.ruby.L1Cache_Controller.I.Store::total      2697239                      
system.ruby.L1Cache_Controller.I.Inv     |        7047     33.28%     33.28% |        3738     17.65%     50.93% |        5251     24.80%     75.72% |        5141     24.28%    100.00%
system.ruby.L1Cache_Controller.I.Inv::total        21177                      
system.ruby.L1Cache_Controller.S.Load    |      263658      2.77%      2.77% |     8701483     91.54%     94.31% |      261027      2.75%     97.06% |      279888      2.94%    100.00%
system.ruby.L1Cache_Controller.S.Load::total      9506056                      
system.ruby.L1Cache_Controller.S.Store   |        5064     34.34%     34.34% |        3032     20.56%     54.90% |        2957     20.05%     74.95% |        3695     25.05%    100.00%
system.ruby.L1Cache_Controller.S.Store::total        14748                      
system.ruby.L1Cache_Controller.S.L0_Invalidate_Own |       61216      6.94%      6.94% |      702050     79.62%     86.57% |       53889      6.11%     92.68% |       64551      7.32%    100.00%
system.ruby.L1Cache_Controller.S.L0_Invalidate_Own::total       881706                      
system.ruby.L1Cache_Controller.S.L0_Invalidate_Else |        2209     12.95%     12.95% |        2220     13.01%     25.96% |        5653     33.14%     59.10% |        6977     40.90%    100.00%
system.ruby.L1Cache_Controller.S.L0_Invalidate_Else::total        17059                      
system.ruby.L1Cache_Controller.SS.Load   |        4107     59.55%     59.55% |          88      1.28%     60.82% |        1238     17.95%     78.77% |        1464     21.23%    100.00%
system.ruby.L1Cache_Controller.SS.Load::total         6897                      
system.ruby.L1Cache_Controller.SS.Store  |        1263     86.68%     86.68% |          15      1.03%     87.71% |         128      8.79%     96.50% |          51      3.50%    100.00%
system.ruby.L1Cache_Controller.SS.Store::total         1457                      
system.ruby.L1Cache_Controller.SS.Inv    |        5015     16.90%     16.90% |        3170     10.68%     27.58% |       11166     37.62%     65.20% |       10329     34.80%    100.00%
system.ruby.L1Cache_Controller.SS.Inv::total        29680                      
system.ruby.L1Cache_Controller.SS.L1_Replacement |       62044      7.00%      7.00% |      702562     79.31%     86.31% |       54613      6.16%     92.47% |       66677      7.53%    100.00%
system.ruby.L1Cache_Controller.SS.L1_Replacement::total       885896                      
system.ruby.L1Cache_Controller.E.WriteBack |       73250      1.39%      1.39% |     5097514     96.89%     98.28% |       33930      0.64%     98.93% |       56516      1.07%    100.00%
system.ruby.L1Cache_Controller.E.WriteBack::total      5261210                      
system.ruby.L1Cache_Controller.E.L0_Invalidate_Own |        2350      0.81%      0.81% |      287541     98.56%     99.37% |        1291      0.44%     99.81% |         546      0.19%    100.00%
system.ruby.L1Cache_Controller.E.L0_Invalidate_Own::total       291728                      
system.ruby.L1Cache_Controller.E.L0_Invalidate_Else |          70     18.92%     18.92% |          64     17.30%     36.22% |         135     36.49%     72.70% |         101     27.30%    100.00%
system.ruby.L1Cache_Controller.E.L0_Invalidate_Else::total          370                      
system.ruby.L1Cache_Controller.EE.Inv    |           1     20.00%     20.00% |           1     20.00%     40.00% |           3     60.00%    100.00% |           0      0.00%    100.00%
system.ruby.L1Cache_Controller.EE.Inv::total            5                      
system.ruby.L1Cache_Controller.EE.L1_Replacement |        2208      0.77%      0.77% |      283313     98.64%     99.40% |        1238      0.43%     99.84% |         472      0.16%    100.00%
system.ruby.L1Cache_Controller.EE.L1_Replacement::total       287231                      
system.ruby.L1Cache_Controller.EE.Fwd_GETX |           4     33.33%     33.33% |           2     16.67%     50.00% |           3     25.00%     75.00% |           3     25.00%    100.00%
system.ruby.L1Cache_Controller.EE.Fwd_GETX::total           12                      
system.ruby.L1Cache_Controller.EE.Fwd_GETS |          34     14.17%     14.17% |          47     19.58%     33.75% |         101     42.08%     75.83% |          58     24.17%    100.00%
system.ruby.L1Cache_Controller.EE.Fwd_GETS::total          240                      
system.ruby.L1Cache_Controller.M.WriteBack |     1169410      0.97%      0.97% |   118944297     98.69%     99.66% |      190398      0.16%     99.82% |      213746      0.18%    100.00%
system.ruby.L1Cache_Controller.M.WriteBack::total    120517851                      
system.ruby.L1Cache_Controller.M.L0_Invalidate_Own |        6075      1.80%      1.80% |      325325     96.21%     98.01% |        2953      0.87%     98.88% |        3791      1.12%    100.00%
system.ruby.L1Cache_Controller.M.L0_Invalidate_Own::total       338144                      
system.ruby.L1Cache_Controller.M.L0_Invalidate_Else |        4165     38.72%     38.72% |        1191     11.07%     49.79% |        2448     22.76%     72.54% |        2954     27.46%    100.00%
system.ruby.L1Cache_Controller.M.L0_Invalidate_Else::total        10758                      
system.ruby.L1Cache_Controller.MM.Load   |      822431      0.97%      0.97% |    83401251     98.72%     99.69% |      122979      0.15%     99.84% |      138639      0.16%    100.00%
system.ruby.L1Cache_Controller.MM.Load::total     84485300                      
system.ruby.L1Cache_Controller.MM.Store  |      315258      0.94%      0.94% |    33245040     98.74%     99.68% |       52442      0.16%     99.84% |       55254      0.16%    100.00%
system.ruby.L1Cache_Controller.MM.Store::total     33667994                      
system.ruby.L1Cache_Controller.MM.Inv    |         225     32.10%     32.10% |         166     23.68%     55.78% |         177     25.25%     81.03% |         133     18.97%    100.00%
system.ruby.L1Cache_Controller.MM.Inv::total          701                      
system.ruby.L1Cache_Controller.MM.L1_Replacement |      105539      1.33%      1.33% |     7723381     97.17%     98.49% |       45618      0.57%     99.07% |       74167      0.93%    100.00%
system.ruby.L1Cache_Controller.MM.L1_Replacement::total      7948705                      
system.ruby.L1Cache_Controller.MM.Fwd_GETX |         872     16.94%     16.94% |        1043     20.26%     37.20% |        1464     28.44%     65.64% |        1769     34.36%    100.00%
system.ruby.L1Cache_Controller.MM.Fwd_GETX::total         5148                      
system.ruby.L1Cache_Controller.MM.Fwd_GETS |        8977     36.40%     36.40% |        1507      6.11%     42.51% |        7539     30.57%     73.09% |        6637     26.91%    100.00%
system.ruby.L1Cache_Controller.MM.Fwd_GETS::total        24660                      
system.ruby.L1Cache_Controller.IS.Data_Exclusive |       75668      1.36%      1.36% |     5385123     96.97%     98.33% |       35349      0.64%     98.97% |       57180      1.03%    100.00%
system.ruby.L1Cache_Controller.IS.Data_Exclusive::total      5553320                      
system.ruby.L1Cache_Controller.IS.DataS_fromL1 |        5577     22.40%     22.40% |        6109     24.53%     46.93% |        5238     21.04%     67.97% |        7976     32.03%    100.00%
system.ruby.L1Cache_Controller.IS.DataS_fromL1::total        24900                      
system.ruby.L1Cache_Controller.IS.Data_all_Acks |       59000      6.69%      6.69% |      700967     79.47%     86.16% |       56351      6.39%     92.54% |       65764      7.46%    100.00%
system.ruby.L1Cache_Controller.IS.Data_all_Acks::total       882082                      
system.ruby.L1Cache_Controller.IM.Data   |        1708     28.89%     28.89% |        1055     17.85%     46.74% |         940     15.90%     62.64% |        2209     37.36%    100.00%
system.ruby.L1Cache_Controller.IM.Data::total         5912                      
system.ruby.L1Cache_Controller.IM.Data_all_Acks |       33919      1.26%      1.26% |     2620423     97.37%     98.63% |       16326      0.61%     99.23% |       20660      0.77%    100.00%
system.ruby.L1Cache_Controller.IM.Data_all_Acks::total      2691328                      
system.ruby.L1Cache_Controller.SM.Inv    |           0      0.00%      0.00% |           0      0.00%      0.00% |           1    100.00%    100.00% |           0      0.00%    100.00%
system.ruby.L1Cache_Controller.SM.Inv::total            1                      
system.ruby.L1Cache_Controller.SM.Ack    |       17361     43.77%     43.77% |        8648     21.81%     65.58% |        5803     14.63%     80.21% |        7848     19.79%    100.00%
system.ruby.L1Cache_Controller.SM.Ack::total        39660                      
system.ruby.L1Cache_Controller.SM.Ack_all |        8035     36.33%     36.33% |        4102     18.55%     54.88% |        4024     18.19%     73.07% |        5955     26.93%    100.00%
system.ruby.L1Cache_Controller.SM.Ack_all::total        22116                      
system.ruby.L1Cache_Controller.M_I.WB_Ack |      107747      1.31%      1.31% |     8006694     97.22%     98.52% |       46856      0.57%     99.09% |       74639      0.91%    100.00%
system.ruby.L1Cache_Controller.M_I.WB_Ack::total      8235936                      
system.ruby.L1Cache_Controller.S_IL0.Store |           0      0.00%      0.00% |           0      0.00%      0.00% |           0      0.00%      0.00% |           1    100.00%    100.00%
system.ruby.L1Cache_Controller.S_IL0.Store::total            1                      
system.ruby.L1Cache_Controller.S_IL0.L0_Invalidate_Own |       61216      6.94%      6.94% |      702050     79.62%     86.57% |       53889      6.11%     92.68% |       64551      7.32%    100.00%
system.ruby.L1Cache_Controller.S_IL0.L0_Invalidate_Own::total       881706                      
system.ruby.L1Cache_Controller.S_IL0.L0_Invalidate_Else |        2209     12.95%     12.95% |        2220     13.01%     25.96% |        5653     33.14%     59.10% |        6977     40.90%    100.00%
system.ruby.L1Cache_Controller.S_IL0.L0_Invalidate_Else::total        17059                      
system.ruby.L1Cache_Controller.S_IL0.L0_Ack |       63425      7.06%      7.06% |      704270     78.36%     85.42% |       59542      6.62%     92.04% |       71528      7.96%    100.00%
system.ruby.L1Cache_Controller.S_IL0.L0_Ack::total       898765                      
system.ruby.L1Cache_Controller.E_IL0.L0_DataAck |         173      3.75%      3.75% |        4242     92.02%     95.77% |          81      1.76%     97.53% |         114      2.47%    100.00%
system.ruby.L1Cache_Controller.E_IL0.L0_DataAck::total         4610                      
system.ruby.L1Cache_Controller.E_IL0.L0_Invalidate_Own |        2350      0.81%      0.81% |      287541     98.56%     99.37% |        1291      0.44%     99.81% |         546      0.19%    100.00%
system.ruby.L1Cache_Controller.E_IL0.L0_Invalidate_Own::total       291728                      
system.ruby.L1Cache_Controller.E_IL0.L0_Invalidate_Else |          70     18.92%     18.92% |          64     17.30%     36.22% |         135     36.49%     72.70% |         101     27.30%    100.00%
system.ruby.L1Cache_Controller.E_IL0.L0_Invalidate_Else::total          370                      
system.ruby.L1Cache_Controller.E_IL0.L0_Ack |        2247      0.78%      0.78% |      283363     98.57%     99.35% |        1345      0.47%     99.81% |         533      0.19%    100.00%
system.ruby.L1Cache_Controller.E_IL0.L0_Ack::total       287488                      
system.ruby.L1Cache_Controller.M_IL0.WriteBack |           1    100.00%    100.00% |           0      0.00%    100.00% |           0      0.00%    100.00% |           0      0.00%    100.00%
system.ruby.L1Cache_Controller.M_IL0.WriteBack::total            1                      
system.ruby.L1Cache_Controller.M_IL0.L0_DataAck |        5599      4.81%      4.81% |      102147     87.77%     92.58% |        4020      3.45%     96.03% |        4617      3.97%    100.00%
system.ruby.L1Cache_Controller.M_IL0.L0_DataAck::total       116383                      
system.ruby.L1Cache_Controller.M_IL0.L0_Invalidate_Own |        6075      1.80%      1.80% |      325325     96.21%     98.01% |        2953      0.87%     98.88% |        3791      1.12%    100.00%
system.ruby.L1Cache_Controller.M_IL0.L0_Invalidate_Own::total       338144                      
system.ruby.L1Cache_Controller.M_IL0.L0_Invalidate_Else |        4165     38.72%     38.72% |        1191     11.07%     49.79% |        2448     22.76%     72.54% |        2954     27.46%    100.00%
system.ruby.L1Cache_Controller.M_IL0.L0_Invalidate_Else::total        10758                      
system.ruby.L1Cache_Controller.M_IL0.L0_Ack |        4640      2.00%      2.00% |      224369     96.50%     98.49% |        1381      0.59%     99.08% |        2128      0.92%    100.00%
system.ruby.L1Cache_Controller.M_IL0.L0_Ack::total       232518                      
system.ruby.L1Cache_Controller.MM_IL0.Fwd_GETS |           1    100.00%    100.00% |           0      0.00%    100.00% |           0      0.00%    100.00% |           0      0.00%    100.00%
system.ruby.L1Cache_Controller.MM_IL0.Fwd_GETS::total            1                      
system.ruby.L1Cache_Controller.MM_IL0.L0_Ack |           1    100.00%    100.00% |           0      0.00%    100.00% |           0      0.00%    100.00% |           0      0.00%    100.00%
system.ruby.L1Cache_Controller.MM_IL0.L0_Ack::total            1                      
system.ruby.L2Cache_Controller.L1_GETS        6460701      0.00%      0.00%
system.ruby.L2Cache_Controller.L1_GETX        2697243      0.00%      0.00%
system.ruby.L2Cache_Controller.L1_UPGRADE        16205      0.00%      0.00%
system.ruby.L2Cache_Controller.L1_PUTX        8235936      0.00%      0.00%
system.ruby.L2Cache_Controller.L2_Replacement        23897      0.00%      0.00%
system.ruby.L2Cache_Controller.L2_Replacement_clean        15388      0.00%      0.00%
system.ruby.L2Cache_Controller.Mem_Data         57607      0.00%      0.00%
system.ruby.L2Cache_Controller.Mem_Ack          40184      0.00%      0.00%
system.ruby.L2Cache_Controller.WB_Data          13342      0.00%      0.00%
system.ruby.L2Cache_Controller.WB_Data_clean        12259      0.00%      0.00%
system.ruby.L2Cache_Controller.Ack               3476      0.00%      0.00%
system.ruby.L2Cache_Controller.Ack_all           1815      0.00%      0.00%
system.ruby.L2Cache_Controller.Unblock          24900      0.00%      0.00%
system.ruby.L2Cache_Controller.Exclusive_Unblock      8266764      0.00%      0.00%
system.ruby.L2Cache_Controller.MEM_Inv           1798      0.00%      0.00%
system.ruby.L2Cache_Controller.NP.L1_GETS        30517      0.00%      0.00%
system.ruby.L2Cache_Controller.NP.L1_GETX        27090      0.00%      0.00%
system.ruby.L2Cache_Controller.SS.L1_GETS       882080      0.00%      0.00%
system.ruby.L2Cache_Controller.SS.L1_GETX         5912      0.00%      0.00%
system.ruby.L2Cache_Controller.SS.L1_UPGRADE        16204      0.00%      0.00%
system.ruby.L2Cache_Controller.SS.L2_Replacement          295      0.00%      0.00%
system.ruby.L2Cache_Controller.SS.L2_Replacement_clean         1443      0.00%      0.00%
system.ruby.L2Cache_Controller.SS.MEM_Inv           72      0.00%      0.00%
system.ruby.L2Cache_Controller.M.L1_GETS      5522804      0.00%      0.00%
system.ruby.L2Cache_Controller.M.L1_GETX      2659078      0.00%      0.00%
system.ruby.L2Cache_Controller.M.L2_Replacement        23326      0.00%      0.00%
system.ruby.L2Cache_Controller.M.L2_Replacement_clean        13536      0.00%      0.00%
system.ruby.L2Cache_Controller.M.MEM_Inv          806      0.00%      0.00%
system.ruby.L2Cache_Controller.MT.L1_GETS        24900      0.00%      0.00%
system.ruby.L2Cache_Controller.MT.L1_GETX         5160      0.00%      0.00%
system.ruby.L2Cache_Controller.MT.L1_PUTX      8235936      0.00%      0.00%
system.ruby.L2Cache_Controller.MT.L2_Replacement          276      0.00%      0.00%
system.ruby.L2Cache_Controller.MT.L2_Replacement_clean          409      0.00%      0.00%
system.ruby.L2Cache_Controller.MT.MEM_Inv           21      0.00%      0.00%
system.ruby.L2Cache_Controller.M_I.Mem_Ack        40184      0.00%      0.00%
system.ruby.L2Cache_Controller.M_I.MEM_Inv          806      0.00%      0.00%
system.ruby.L2Cache_Controller.MT_I.WB_Data          233      0.00%      0.00%
system.ruby.L2Cache_Controller.MT_I.WB_Data_clean           61      0.00%      0.00%
system.ruby.L2Cache_Controller.MT_I.Ack_all            3      0.00%      0.00%
system.ruby.L2Cache_Controller.MT_I.MEM_Inv           21      0.00%      0.00%
system.ruby.L2Cache_Controller.MCT_I.WB_Data          192      0.00%      0.00%
system.ruby.L2Cache_Controller.MCT_I.WB_Data_clean          215      0.00%      0.00%
system.ruby.L2Cache_Controller.MCT_I.Ack_all            2      0.00%      0.00%
system.ruby.L2Cache_Controller.I_I.Ack           3005      0.00%      0.00%
system.ruby.L2Cache_Controller.I_I.Ack_all         1443      0.00%      0.00%
system.ruby.L2Cache_Controller.S_I.Ack            471      0.00%      0.00%
system.ruby.L2Cache_Controller.S_I.Ack_all          367      0.00%      0.00%
system.ruby.L2Cache_Controller.S_I.MEM_Inv           72      0.00%      0.00%
system.ruby.L2Cache_Controller.ISS.L1_GETS            1      0.00%      0.00%
system.ruby.L2Cache_Controller.ISS.Mem_Data        30516      0.00%      0.00%
system.ruby.L2Cache_Controller.IS.Mem_Data            1      0.00%      0.00%
system.ruby.L2Cache_Controller.IM.Mem_Data        27090      0.00%      0.00%
system.ruby.L2Cache_Controller.SS_MB.L1_GETS           66      0.00%      0.00%
system.ruby.L2Cache_Controller.SS_MB.L1_GETX            1      0.00%      0.00%
system.ruby.L2Cache_Controller.SS_MB.L1_UPGRADE            1      0.00%      0.00%
system.ruby.L2Cache_Controller.SS_MB.Exclusive_Unblock        22116      0.00%      0.00%
system.ruby.L2Cache_Controller.MT_MB.L1_GETS          327      0.00%      0.00%
system.ruby.L2Cache_Controller.MT_MB.L1_GETX            1      0.00%      0.00%
system.ruby.L2Cache_Controller.MT_MB.Exclusive_Unblock      8244648      0.00%      0.00%
system.ruby.L2Cache_Controller.MT_IIB.L1_GETS            6      0.00%      0.00%
system.ruby.L2Cache_Controller.MT_IIB.L1_GETX            1      0.00%      0.00%
system.ruby.L2Cache_Controller.MT_IIB.WB_Data        12916      0.00%      0.00%
system.ruby.L2Cache_Controller.MT_IIB.WB_Data_clean        11976      0.00%      0.00%
system.ruby.L2Cache_Controller.MT_IIB.Unblock            8      0.00%      0.00%
system.ruby.L2Cache_Controller.MT_IB.WB_Data            1      0.00%      0.00%
system.ruby.L2Cache_Controller.MT_IB.WB_Data_clean            7      0.00%      0.00%
system.ruby.L2Cache_Controller.MT_SB.Unblock        24892      0.00%      0.00%

---------- End Simulation Statistics   ----------
