
---------- Begin Simulation Statistics ----------
sim_seconds                                  3.928097                       # Number of seconds simulated
sim_ticks                                3928097350500                       # Number of ticks simulated
final_tick                               56369288372001                       # Number of ticks from beginning of simulation (restored from checkpoints and never reset)
sim_freq                                 1000000000000                       # Frequency of simulated ticks
host_inst_rate                                 138133                       # Simulator instruction rate (inst/s)
host_op_rate                                   235277                       # Simulator op (including micro ops) rate (op/s)
host_tick_rate                              268382431                       # Simulator tick rate (ticks/s)
host_mem_usage                                1880308                       # Number of bytes of host memory used
host_seconds                                 14636.19                       # Real time elapsed on the host
sim_insts                                  2021734894                       # Number of instructions simulated
sim_ops                                    3443566522                       # Number of ops (including micro ops) simulated
system.voltage_domain.voltage                       1                       # Voltage in Volts
system.clk_domain.clock                          1000                       # Clock period in ticks
system.mem_ctrls.bytes_read::ruby.dir_cntrl0      1295552                       # Number of bytes read from this memory
system.mem_ctrls.bytes_read::total            1295552                       # Number of bytes read from this memory
system.mem_ctrls.bytes_written::ruby.dir_cntrl0       431552                       # Number of bytes written to this memory
system.mem_ctrls.bytes_written::total          431552                       # Number of bytes written to this memory
system.mem_ctrls.num_reads::ruby.dir_cntrl0        20243                       # Number of read requests responded to by this memory
system.mem_ctrls.num_reads::total               20243                       # Number of read requests responded to by this memory
system.mem_ctrls.num_writes::ruby.dir_cntrl0         6743                       # Number of write requests responded to by this memory
system.mem_ctrls.num_writes::total               6743                       # Number of write requests responded to by this memory
system.mem_ctrls.bw_read::ruby.dir_cntrl0       329817                       # Total read bandwidth from this memory (bytes/s)
system.mem_ctrls.bw_read::total                329817                       # Total read bandwidth from this memory (bytes/s)
system.mem_ctrls.bw_write::ruby.dir_cntrl0       109863                       # Write bandwidth from this memory (bytes/s)
system.mem_ctrls.bw_write::total               109863                       # Write bandwidth from this memory (bytes/s)
system.mem_ctrls.bw_total::ruby.dir_cntrl0       439680                       # Total bandwidth to/from this memory (bytes/s)
system.mem_ctrls.bw_total::total               439680                       # Total bandwidth to/from this memory (bytes/s)
system.mem_ctrls.readReqs                       20243                       # Number of read requests accepted
system.mem_ctrls.writeReqs                       6743                       # Number of write requests accepted
system.mem_ctrls.readBursts                     20243                       # Number of DRAM read bursts, including those serviced by the write queue
system.mem_ctrls.writeBursts                     6743                       # Number of DRAM write bursts, including those merged in the write queue
system.mem_ctrls.bytesReadDRAM                1293888                       # Total number of bytes read from DRAM
system.mem_ctrls.bytesReadWrQ                    1664                       # Total number of bytes read from write queue
system.mem_ctrls.bytesWritten                  430592                       # Total number of bytes written to DRAM
system.mem_ctrls.bytesReadSys                 1295552                       # Total read bytes from the system interface side
system.mem_ctrls.bytesWrittenSys               431552                       # Total written bytes from the system interface side
system.mem_ctrls.servicedByWrQ                     26                       # Number of DRAM read bursts serviced by the write queue
system.mem_ctrls.mergedWrBursts                     0                       # Number of DRAM write bursts merged with an existing one
system.mem_ctrls.neitherReadNorWriteReqs            0                       # Number of requests that are neither read nor write
system.mem_ctrls.perBankRdBursts::0              1647                       # Per bank write bursts
system.mem_ctrls.perBankRdBursts::1              1132                       # Per bank write bursts
system.mem_ctrls.perBankRdBursts::2              1008                       # Per bank write bursts
system.mem_ctrls.perBankRdBursts::3              1016                       # Per bank write bursts
system.mem_ctrls.perBankRdBursts::4              1169                       # Per bank write bursts
system.mem_ctrls.perBankRdBursts::5              1284                       # Per bank write bursts
system.mem_ctrls.perBankRdBursts::6              1618                       # Per bank write bursts
system.mem_ctrls.perBankRdBursts::7              1874                       # Per bank write bursts
system.mem_ctrls.perBankRdBursts::8              1017                       # Per bank write bursts
system.mem_ctrls.perBankRdBursts::9               898                       # Per bank write bursts
system.mem_ctrls.perBankRdBursts::10             1192                       # Per bank write bursts
system.mem_ctrls.perBankRdBursts::11             1044                       # Per bank write bursts
system.mem_ctrls.perBankRdBursts::12             1084                       # Per bank write bursts
system.mem_ctrls.perBankRdBursts::13             1367                       # Per bank write bursts
system.mem_ctrls.perBankRdBursts::14             1581                       # Per bank write bursts
system.mem_ctrls.perBankRdBursts::15             1286                       # Per bank write bursts
system.mem_ctrls.perBankWrBursts::0               647                       # Per bank write bursts
system.mem_ctrls.perBankWrBursts::1               482                       # Per bank write bursts
system.mem_ctrls.perBankWrBursts::2               488                       # Per bank write bursts
system.mem_ctrls.perBankWrBursts::3               431                       # Per bank write bursts
system.mem_ctrls.perBankWrBursts::4               570                       # Per bank write bursts
system.mem_ctrls.perBankWrBursts::5               433                       # Per bank write bursts
system.mem_ctrls.perBankWrBursts::6               527                       # Per bank write bursts
system.mem_ctrls.perBankWrBursts::7               593                       # Per bank write bursts
system.mem_ctrls.perBankWrBursts::8               189                       # Per bank write bursts
system.mem_ctrls.perBankWrBursts::9               114                       # Per bank write bursts
system.mem_ctrls.perBankWrBursts::10              267                       # Per bank write bursts
system.mem_ctrls.perBankWrBursts::11              101                       # Per bank write bursts
system.mem_ctrls.perBankWrBursts::12              293                       # Per bank write bursts
system.mem_ctrls.perBankWrBursts::13              472                       # Per bank write bursts
system.mem_ctrls.perBankWrBursts::14              770                       # Per bank write bursts
system.mem_ctrls.perBankWrBursts::15              351                       # Per bank write bursts
system.mem_ctrls.numRdRetry                         0                       # Number of times read queue was full causing retry
system.mem_ctrls.numWrRetry                         0                       # Number of times write queue was full causing retry
system.mem_ctrls.totGap                  3928097277500                       # Total gap between requests
system.mem_ctrls.readPktSize::0                     0                       # Read request sizes (log2)
system.mem_ctrls.readPktSize::1                     0                       # Read request sizes (log2)
system.mem_ctrls.readPktSize::2                     0                       # Read request sizes (log2)
system.mem_ctrls.readPktSize::3                     0                       # Read request sizes (log2)
system.mem_ctrls.readPktSize::4                     0                       # Read request sizes (log2)
system.mem_ctrls.readPktSize::5                     0                       # Read request sizes (log2)
system.mem_ctrls.readPktSize::6                 20243                       # Read request sizes (log2)
system.mem_ctrls.writePktSize::0                    0                       # Write request sizes (log2)
system.mem_ctrls.writePktSize::1                    0                       # Write request sizes (log2)
system.mem_ctrls.writePktSize::2                    0                       # Write request sizes (log2)
system.mem_ctrls.writePktSize::3                    0                       # Write request sizes (log2)
system.mem_ctrls.writePktSize::4                    0                       # Write request sizes (log2)
system.mem_ctrls.writePktSize::5                    0                       # Write request sizes (log2)
system.mem_ctrls.writePktSize::6                 6743                       # Write request sizes (log2)
system.mem_ctrls.rdQLenPdf::0                   20034                       # What read queue length does an incoming req see
system.mem_ctrls.rdQLenPdf::1                     176                       # What read queue length does an incoming req see
system.mem_ctrls.rdQLenPdf::2                       7                       # What read queue length does an incoming req see
system.mem_ctrls.rdQLenPdf::3                       0                       # What read queue length does an incoming req see
system.mem_ctrls.rdQLenPdf::4                       0                       # What read queue length does an incoming req see
system.mem_ctrls.rdQLenPdf::5                       0                       # What read queue length does an incoming req see
system.mem_ctrls.rdQLenPdf::6                       0                       # What read queue length does an incoming req see
system.mem_ctrls.rdQLenPdf::7                       0                       # What read queue length does an incoming req see
system.mem_ctrls.rdQLenPdf::8                       0                       # What read queue length does an incoming req see
system.mem_ctrls.rdQLenPdf::9                       0                       # What read queue length does an incoming req see
system.mem_ctrls.rdQLenPdf::10                      0                       # What read queue length does an incoming req see
system.mem_ctrls.rdQLenPdf::11                      0                       # What read queue length does an incoming req see
system.mem_ctrls.rdQLenPdf::12                      0                       # What read queue length does an incoming req see
system.mem_ctrls.rdQLenPdf::13                      0                       # What read queue length does an incoming req see
system.mem_ctrls.rdQLenPdf::14                      0                       # What read queue length does an incoming req see
system.mem_ctrls.rdQLenPdf::15                      0                       # What read queue length does an incoming req see
system.mem_ctrls.rdQLenPdf::16                      0                       # What read queue length does an incoming req see
system.mem_ctrls.rdQLenPdf::17                      0                       # What read queue length does an incoming req see
system.mem_ctrls.rdQLenPdf::18                      0                       # What read queue length does an incoming req see
system.mem_ctrls.rdQLenPdf::19                      0                       # What read queue length does an incoming req see
system.mem_ctrls.rdQLenPdf::20                      0                       # What read queue length does an incoming req see
system.mem_ctrls.rdQLenPdf::21                      0                       # What read queue length does an incoming req see
system.mem_ctrls.rdQLenPdf::22                      0                       # What read queue length does an incoming req see
system.mem_ctrls.rdQLenPdf::23                      0                       # What read queue length does an incoming req see
system.mem_ctrls.rdQLenPdf::24                      0                       # What read queue length does an incoming req see
system.mem_ctrls.rdQLenPdf::25                      0                       # What read queue length does an incoming req see
system.mem_ctrls.rdQLenPdf::26                      0                       # What read queue length does an incoming req see
system.mem_ctrls.rdQLenPdf::27                      0                       # What read queue length does an incoming req see
system.mem_ctrls.rdQLenPdf::28                      0                       # What read queue length does an incoming req see
system.mem_ctrls.rdQLenPdf::29                      0                       # What read queue length does an incoming req see
system.mem_ctrls.rdQLenPdf::30                      0                       # What read queue length does an incoming req see
system.mem_ctrls.rdQLenPdf::31                      0                       # What read queue length does an incoming req see
system.mem_ctrls.wrQLenPdf::0                       0                       # What write queue length does an incoming req see
system.mem_ctrls.wrQLenPdf::1                       0                       # What write queue length does an incoming req see
system.mem_ctrls.wrQLenPdf::2                       0                       # What write queue length does an incoming req see
system.mem_ctrls.wrQLenPdf::3                       0                       # What write queue length does an incoming req see
system.mem_ctrls.wrQLenPdf::4                       0                       # What write queue length does an incoming req see
system.mem_ctrls.wrQLenPdf::5                       0                       # What write queue length does an incoming req see
system.mem_ctrls.wrQLenPdf::6                       0                       # What write queue length does an incoming req see
system.mem_ctrls.wrQLenPdf::7                       0                       # What write queue length does an incoming req see
system.mem_ctrls.wrQLenPdf::8                       0                       # What write queue length does an incoming req see
system.mem_ctrls.wrQLenPdf::9                       0                       # What write queue length does an incoming req see
system.mem_ctrls.wrQLenPdf::10                      0                       # What write queue length does an incoming req see
system.mem_ctrls.wrQLenPdf::11                      0                       # What write queue length does an incoming req see
system.mem_ctrls.wrQLenPdf::12                      0                       # What write queue length does an incoming req see
system.mem_ctrls.wrQLenPdf::13                      0                       # What write queue length does an incoming req see
system.mem_ctrls.wrQLenPdf::14                      1                       # What write queue length does an incoming req see
system.mem_ctrls.wrQLenPdf::15                    117                       # What write queue length does an incoming req see
system.mem_ctrls.wrQLenPdf::16                    161                       # What write queue length does an incoming req see
system.mem_ctrls.wrQLenPdf::17                    396                       # What write queue length does an incoming req see
system.mem_ctrls.wrQLenPdf::18                    428                       # What write queue length does an incoming req see
system.mem_ctrls.wrQLenPdf::19                    404                       # What write queue length does an incoming req see
system.mem_ctrls.wrQLenPdf::20                    460                       # What write queue length does an incoming req see
system.mem_ctrls.wrQLenPdf::21                    435                       # What write queue length does an incoming req see
system.mem_ctrls.wrQLenPdf::22                    387                       # What write queue length does an incoming req see
system.mem_ctrls.wrQLenPdf::23                    442                       # What write queue length does an incoming req see
system.mem_ctrls.wrQLenPdf::24                    433                       # What write queue length does an incoming req see
system.mem_ctrls.wrQLenPdf::25                    385                       # What write queue length does an incoming req see
system.mem_ctrls.wrQLenPdf::26                    401                       # What write queue length does an incoming req see
system.mem_ctrls.wrQLenPdf::27                    386                       # What write queue length does an incoming req see
system.mem_ctrls.wrQLenPdf::28                    395                       # What write queue length does an incoming req see
system.mem_ctrls.wrQLenPdf::29                    370                       # What write queue length does an incoming req see
system.mem_ctrls.wrQLenPdf::30                    374                       # What write queue length does an incoming req see
system.mem_ctrls.wrQLenPdf::31                    379                       # What write queue length does an incoming req see
system.mem_ctrls.wrQLenPdf::32                    365                       # What write queue length does an incoming req see
system.mem_ctrls.wrQLenPdf::33                      4                       # What write queue length does an incoming req see
system.mem_ctrls.wrQLenPdf::34                      3                       # What write queue length does an incoming req see
system.mem_ctrls.wrQLenPdf::35                      2                       # What write queue length does an incoming req see
system.mem_ctrls.wrQLenPdf::36                      2                       # What write queue length does an incoming req see
system.mem_ctrls.wrQLenPdf::37                      4                       # What write queue length does an incoming req see
system.mem_ctrls.wrQLenPdf::38                      2                       # What write queue length does an incoming req see
system.mem_ctrls.wrQLenPdf::39                      2                       # What write queue length does an incoming req see
system.mem_ctrls.wrQLenPdf::40                      2                       # What write queue length does an incoming req see
system.mem_ctrls.wrQLenPdf::41                      2                       # What write queue length does an incoming req see
system.mem_ctrls.wrQLenPdf::42                      1                       # What write queue length does an incoming req see
system.mem_ctrls.wrQLenPdf::43                      0                       # What write queue length does an incoming req see
system.mem_ctrls.wrQLenPdf::44                      0                       # What write queue length does an incoming req see
system.mem_ctrls.wrQLenPdf::45                      0                       # What write queue length does an incoming req see
system.mem_ctrls.wrQLenPdf::46                      0                       # What write queue length does an incoming req see
system.mem_ctrls.wrQLenPdf::47                      0                       # What write queue length does an incoming req see
system.mem_ctrls.wrQLenPdf::48                      0                       # What write queue length does an incoming req see
system.mem_ctrls.wrQLenPdf::49                      0                       # What write queue length does an incoming req see
system.mem_ctrls.wrQLenPdf::50                      0                       # What write queue length does an incoming req see
system.mem_ctrls.wrQLenPdf::51                      0                       # What write queue length does an incoming req see
system.mem_ctrls.wrQLenPdf::52                      0                       # What write queue length does an incoming req see
system.mem_ctrls.wrQLenPdf::53                      0                       # What write queue length does an incoming req see
system.mem_ctrls.wrQLenPdf::54                      0                       # What write queue length does an incoming req see
system.mem_ctrls.wrQLenPdf::55                      0                       # What write queue length does an incoming req see
system.mem_ctrls.wrQLenPdf::56                      0                       # What write queue length does an incoming req see
system.mem_ctrls.wrQLenPdf::57                      0                       # What write queue length does an incoming req see
system.mem_ctrls.wrQLenPdf::58                      0                       # What write queue length does an incoming req see
system.mem_ctrls.wrQLenPdf::59                      0                       # What write queue length does an incoming req see
system.mem_ctrls.wrQLenPdf::60                      0                       # What write queue length does an incoming req see
system.mem_ctrls.wrQLenPdf::61                      0                       # What write queue length does an incoming req see
system.mem_ctrls.wrQLenPdf::62                      0                       # What write queue length does an incoming req see
system.mem_ctrls.wrQLenPdf::63                      0                       # What write queue length does an incoming req see
system.mem_ctrls.bytesPerActivate::samples         7274                       # Bytes accessed per row activation
system.mem_ctrls.bytesPerActivate::mean    237.074512                       # Bytes accessed per row activation
system.mem_ctrls.bytesPerActivate::gmean   135.232373                       # Bytes accessed per row activation
system.mem_ctrls.bytesPerActivate::stdev   301.966369                       # Bytes accessed per row activation
system.mem_ctrls.bytesPerActivate::0-127         3758     51.66%     51.66% # Bytes accessed per row activation
system.mem_ctrls.bytesPerActivate::128-255         1685     23.16%     74.83% # Bytes accessed per row activation
system.mem_ctrls.bytesPerActivate::256-383          461      6.34%     81.17% # Bytes accessed per row activation
system.mem_ctrls.bytesPerActivate::384-511          262      3.60%     84.77% # Bytes accessed per row activation
system.mem_ctrls.bytesPerActivate::512-639          146      2.01%     86.77% # Bytes accessed per row activation
system.mem_ctrls.bytesPerActivate::640-767          108      1.48%     88.26% # Bytes accessed per row activation
system.mem_ctrls.bytesPerActivate::768-895           87      1.20%     89.46% # Bytes accessed per row activation
system.mem_ctrls.bytesPerActivate::896-1023           75      1.03%     90.49% # Bytes accessed per row activation
system.mem_ctrls.bytesPerActivate::1024-1151          692      9.51%    100.00% # Bytes accessed per row activation
system.mem_ctrls.bytesPerActivate::total         7274                       # Bytes accessed per row activation
system.mem_ctrls.rdPerTurnAround::samples          363                       # Reads before turning the bus around for writes
system.mem_ctrls.rdPerTurnAround::mean      99.027548                       # Reads before turning the bus around for writes
system.mem_ctrls.rdPerTurnAround::stdev    869.135828                       # Reads before turning the bus around for writes
system.mem_ctrls.rdPerTurnAround::0-1023          362     99.72%     99.72% # Reads before turning the bus around for writes
system.mem_ctrls.rdPerTurnAround::16384-17407            1      0.28%    100.00% # Reads before turning the bus around for writes
system.mem_ctrls.rdPerTurnAround::total           363                       # Reads before turning the bus around for writes
system.mem_ctrls.wrPerTurnAround::samples          363                       # Writes before turning the bus around for reads
system.mem_ctrls.wrPerTurnAround::mean      18.534435                       # Writes before turning the bus around for reads
system.mem_ctrls.wrPerTurnAround::gmean     18.167172                       # Writes before turning the bus around for reads
system.mem_ctrls.wrPerTurnAround::stdev      3.986968                       # Writes before turning the bus around for reads
system.mem_ctrls.wrPerTurnAround::16              240     66.12%     66.12% # Writes before turning the bus around for reads
system.mem_ctrls.wrPerTurnAround::17                4      1.10%     67.22% # Writes before turning the bus around for reads
system.mem_ctrls.wrPerTurnAround::18                4      1.10%     68.32% # Writes before turning the bus around for reads
system.mem_ctrls.wrPerTurnAround::20                2      0.55%     68.87% # Writes before turning the bus around for reads
system.mem_ctrls.wrPerTurnAround::21               31      8.54%     77.41% # Writes before turning the bus around for reads
system.mem_ctrls.wrPerTurnAround::22                8      2.20%     79.61% # Writes before turning the bus around for reads
system.mem_ctrls.wrPerTurnAround::23                5      1.38%     80.99% # Writes before turning the bus around for reads
system.mem_ctrls.wrPerTurnAround::24               37     10.19%     91.18% # Writes before turning the bus around for reads
system.mem_ctrls.wrPerTurnAround::25                9      2.48%     93.66% # Writes before turning the bus around for reads
system.mem_ctrls.wrPerTurnAround::27                1      0.28%     93.94% # Writes before turning the bus around for reads
system.mem_ctrls.wrPerTurnAround::28               21      5.79%     99.72% # Writes before turning the bus around for reads
system.mem_ctrls.wrPerTurnAround::38                1      0.28%    100.00% # Writes before turning the bus around for reads
system.mem_ctrls.wrPerTurnAround::total           363                       # Writes before turning the bus around for reads
system.mem_ctrls.totQLat                    196054000                       # Total ticks spent queuing
system.mem_ctrls.totMemAccLat               575122750                       # Total ticks spent from burst creation until serviced by the DRAM
system.mem_ctrls.totBusLat                  101085000                       # Total ticks spent in databus transfers
system.mem_ctrls.avgQLat                      9697.48                       # Average queueing delay per DRAM burst
system.mem_ctrls.avgBusLat                    5000.00                       # Average bus latency per DRAM burst
system.mem_ctrls.avgMemAccLat                28447.48                       # Average memory access latency per DRAM burst
system.mem_ctrls.avgRdBW                         0.33                       # Average DRAM read bandwidth in MiByte/s
system.mem_ctrls.avgWrBW                         0.11                       # Average achieved write bandwidth in MiByte/s
system.mem_ctrls.avgRdBWSys                      0.33                       # Average system read bandwidth in MiByte/s
system.mem_ctrls.avgWrBWSys                      0.11                       # Average system write bandwidth in MiByte/s
system.mem_ctrls.peakBW                      12800.00                       # Theoretical peak bandwidth in MiByte/s
system.mem_ctrls.busUtil                         0.00                       # Data bus utilization in percentage
system.mem_ctrls.busUtilRead                     0.00                       # Data bus utilization in percentage for reads
system.mem_ctrls.busUtilWrite                    0.00                       # Data bus utilization in percentage for writes
system.mem_ctrls.avgRdQLen                       1.00                       # Average read queue length when enqueuing
system.mem_ctrls.avgWrQLen                      24.26                       # Average write queue length when enqueuing
system.mem_ctrls.readRowHits                    14949                       # Number of row buffer hits during reads
system.mem_ctrls.writeRowHits                    4722                       # Number of row buffer hits during writes
system.mem_ctrls.readRowHitRate                 73.94                       # Row buffer hit rate for reads
system.mem_ctrls.writeRowHitRate                70.03                       # Row buffer hit rate for writes
system.mem_ctrls.avgGap                  145560560.20                       # Average gap between requests
system.mem_ctrls.pageHitRate                    72.96                       # Row buffer hit rate, read and write combined
system.mem_ctrls_0.actEnergy                 44044560                       # Energy for activate commands per rank (pJ)
system.mem_ctrls_0.preEnergy                 24032250                       # Energy for precharge commands per rank (pJ)
system.mem_ctrls_0.readEnergy               140953800                       # Energy for read commands per rank (pJ)
system.mem_ctrls_0.writeEnergy               27028080                       # Energy for write commands per rank (pJ)
system.mem_ctrls_0.refreshEnergy         256816188720                       # Energy for refresh commands per rank (pJ)
system.mem_ctrls_0.actBackEnergy          89337063015                       # Energy for active background per rank (pJ)
system.mem_ctrls_0.preBackEnergy         2280807328500                       # Energy for precharge background per rank (pJ)
system.mem_ctrls_0.totalEnergy           2627196638925                       # Total energy per rank (pJ)
system.mem_ctrls_0.averagePower            668.165441                       # Core power per rank (mW)
system.mem_ctrls_0.memoryStateTime::IDLE 3792805630750                       # Time in different power states
system.mem_ctrls_0.memoryStateTime::REF  131167920000                       # Time in different power states
system.mem_ctrls_0.memoryStateTime::PRE_PDN            0                       # Time in different power states
system.mem_ctrls_0.memoryStateTime::ACT    4124978250                       # Time in different power states
system.mem_ctrls_0.memoryStateTime::ACT_PDN            0                       # Time in different power states
system.mem_ctrls_1.actEnergy                 41262480                       # Energy for activate commands per rank (pJ)
system.mem_ctrls_1.preEnergy                 22514250                       # Energy for precharge commands per rank (pJ)
system.mem_ctrls_1.readEnergy               139604400                       # Energy for read commands per rank (pJ)
system.mem_ctrls_1.writeEnergy               16569360                       # Energy for write commands per rank (pJ)
system.mem_ctrls_1.refreshEnergy         256816188720                       # Energy for refresh commands per rank (pJ)
system.mem_ctrls_1.actBackEnergy          89475328485                       # Energy for active background per rank (pJ)
system.mem_ctrls_1.preBackEnergy         2280686043000                       # Energy for precharge background per rank (pJ)
system.mem_ctrls_1.totalEnergy           2627197510695                       # Total energy per rank (pJ)
system.mem_ctrls_1.averagePower            668.165663                       # Core power per rank (mW)
system.mem_ctrls_1.memoryStateTime::IDLE 3792603667750                       # Time in different power states
system.mem_ctrls_1.memoryStateTime::REF  131167920000                       # Time in different power states
system.mem_ctrls_1.memoryStateTime::PRE_PDN            0                       # Time in different power states
system.mem_ctrls_1.memoryStateTime::ACT    4329247250                       # Time in different power states
system.mem_ctrls_1.memoryStateTime::ACT_PDN            0                       # Time in different power states
system.cpu_voltage_domain.voltage                   1                       # Voltage in Volts
system.cpu_clk_domain.clock                       500                       # Clock period in ticks
system.cpu0.apic_clk_domain.clock                8000                       # Clock period in ticks
system.cpu0.numCycles                      7858266267                       # number of cpu cycles simulated
system.cpu0.numWorkItemsStarted                     0                       # number of work items this cpu started
system.cpu0.numWorkItemsCompleted                   0                       # number of work items this cpu completed
system.cpu0.kern.inst.arm                           0                       # number of arm instructions executed
system.cpu0.kern.inst.quiesce                       0                       # number of quiesce instructions executed
system.cpu0.committedInsts                 1994582253                       # Number of instructions committed
system.cpu0.committedOps                   3393227256                       # Number of ops (including micro ops) committed
system.cpu0.num_int_alu_accesses           2757867807                       # Number of integer alu accesses
system.cpu0.num_fp_alu_accesses            1010088632                       # Number of float alu accesses
system.cpu0.num_func_calls                   49957250                       # number of times a function call or return occured
system.cpu0.num_conditional_control_insts    199829223                       # number of instructions that are conditional controls
system.cpu0.num_int_insts                  2757867807                       # number of integer instructions
system.cpu0.num_fp_insts                   1010088632                       # number of float instructions
system.cpu0.num_int_register_reads         5218947253                       # number of times the integer registers were read
system.cpu0.num_int_register_writes        2052852883                       # number of times the integer registers were written
system.cpu0.num_fp_register_reads          1701898935                       # number of times the floating registers were read
system.cpu0.num_fp_register_writes          899765754                       # number of times the floating registers were written
system.cpu0.num_cc_register_reads          1288772347                       # number of times the CC registers were read
system.cpu0.num_cc_register_writes         1039463720                       # number of times the CC registers were written
system.cpu0.num_mem_refs                    738322096                       # number of memory refs
system.cpu0.num_load_insts                  571857356                       # Number of load instructions
system.cpu0.num_store_insts                 166464740                       # Number of store instructions
system.cpu0.num_idle_cycles              69591280.386286                       # Number of idle cycles
system.cpu0.num_busy_cycles              7788674986.613714                       # Number of busy cycles
system.cpu0.not_idle_fraction                0.991144                       # Percentage of non-idle cycles
system.cpu0.idle_fraction                    0.008856                       # Percentage of idle cycles
system.cpu0.Branches                        261201547                       # Number of branches fetched
system.cpu0.op_class::No_OpClass              1514272      0.04%      0.04% # Class of executed instruction
system.cpu0.op_class::IntAlu               2189516718     64.53%     64.57% # Class of executed instruction
system.cpu0.op_class::IntMult                24044494      0.71%     65.28% # Class of executed instruction
system.cpu0.op_class::IntDiv                   210376      0.01%     65.29% # Class of executed instruction
system.cpu0.op_class::FloatAdd              439619455     12.96%     78.24% # Class of executed instruction
system.cpu0.op_class::FloatCmp                      0      0.00%     78.24% # Class of executed instruction
system.cpu0.op_class::FloatCvt                      0      0.00%     78.24% # Class of executed instruction
system.cpu0.op_class::FloatMult                     0      0.00%     78.24% # Class of executed instruction
system.cpu0.op_class::FloatDiv                      0      0.00%     78.24% # Class of executed instruction
system.cpu0.op_class::FloatSqrt                     0      0.00%     78.24% # Class of executed instruction
system.cpu0.op_class::SimdAdd                       0      0.00%     78.24% # Class of executed instruction
system.cpu0.op_class::SimdAddAcc                    0      0.00%     78.24% # Class of executed instruction
system.cpu0.op_class::SimdAlu                       0      0.00%     78.24% # Class of executed instruction
system.cpu0.op_class::SimdCmp                       0      0.00%     78.24% # Class of executed instruction
system.cpu0.op_class::SimdCvt                       0      0.00%     78.24% # Class of executed instruction
system.cpu0.op_class::SimdMisc                      0      0.00%     78.24% # Class of executed instruction
system.cpu0.op_class::SimdMult                      0      0.00%     78.24% # Class of executed instruction
system.cpu0.op_class::SimdMultAcc                   0      0.00%     78.24% # Class of executed instruction
system.cpu0.op_class::SimdShift                     0      0.00%     78.24% # Class of executed instruction
system.cpu0.op_class::SimdShiftAcc                  0      0.00%     78.24% # Class of executed instruction
system.cpu0.op_class::SimdSqrt                      0      0.00%     78.24% # Class of executed instruction
system.cpu0.op_class::SimdFloatAdd                  0      0.00%     78.24% # Class of executed instruction
system.cpu0.op_class::SimdFloatAlu                  0      0.00%     78.24% # Class of executed instruction
system.cpu0.op_class::SimdFloatCmp                  0      0.00%     78.24% # Class of executed instruction
system.cpu0.op_class::SimdFloatCvt                  0      0.00%     78.24% # Class of executed instruction
system.cpu0.op_class::SimdFloatDiv                  0      0.00%     78.24% # Class of executed instruction
system.cpu0.op_class::SimdFloatMisc                 0      0.00%     78.24% # Class of executed instruction
system.cpu0.op_class::SimdFloatMult                 0      0.00%     78.24% # Class of executed instruction
system.cpu0.op_class::SimdFloatMultAcc              0      0.00%     78.24% # Class of executed instruction
system.cpu0.op_class::SimdFloatSqrt                 0      0.00%     78.24% # Class of executed instruction
system.cpu0.op_class::MemRead               571857356     16.85%     95.09% # Class of executed instruction
system.cpu0.op_class::MemWrite              166464740      4.91%    100.00% # Class of executed instruction
system.cpu0.op_class::IprAccess                     0      0.00%    100.00% # Class of executed instruction
system.cpu0.op_class::InstPrefetch                  0      0.00%    100.00% # Class of executed instruction
system.cpu0.op_class::total                3393227411                       # Class of executed instruction
system.cpu1.apic_clk_domain.clock                8000                       # Clock period in ticks
system.cpu1.numCycles                      7853261429                       # number of cpu cycles simulated
system.cpu1.numWorkItemsStarted                     0                       # number of work items this cpu started
system.cpu1.numWorkItemsCompleted                   0                       # number of work items this cpu completed
system.cpu1.kern.inst.arm                           0                       # number of arm instructions executed
system.cpu1.kern.inst.quiesce                       0                       # number of quiesce instructions executed
system.cpu1.committedInsts                    2940808                       # Number of instructions committed
system.cpu1.committedOps                      6304797                       # Number of ops (including micro ops) committed
system.cpu1.num_int_alu_accesses              6169039                       # Number of integer alu accesses
system.cpu1.num_fp_alu_accesses                    65                       # Number of float alu accesses
system.cpu1.num_func_calls                     171671                       # number of times a function call or return occured
system.cpu1.num_conditional_control_insts       452526                       # number of instructions that are conditional controls
system.cpu1.num_int_insts                     6169039                       # number of integer instructions
system.cpu1.num_fp_insts                           65                       # number of float instructions
system.cpu1.num_int_register_reads           12503674                       # number of times the integer registers were read
system.cpu1.num_int_register_writes           5114798                       # number of times the integer registers were written
system.cpu1.num_fp_register_reads                  82                       # number of times the floating registers were read
system.cpu1.num_fp_register_writes                 44                       # number of times the floating registers were written
system.cpu1.num_cc_register_reads             3594120                       # number of times the CC registers were read
system.cpu1.num_cc_register_writes            1887772                       # number of times the CC registers were written
system.cpu1.num_mem_refs                      1487333                       # number of memory refs
system.cpu1.num_load_insts                     924745                       # Number of load instructions
system.cpu1.num_store_insts                    562588                       # Number of store instructions
system.cpu1.num_idle_cycles              7838956408.068961                       # Number of idle cycles
system.cpu1.num_busy_cycles              14305020.931039                       # Number of busy cycles
system.cpu1.not_idle_fraction                0.001822                       # Percentage of non-idle cycles
system.cpu1.idle_fraction                    0.998178                       # Percentage of idle cycles
system.cpu1.Branches                           679972                       # Number of branches fetched
system.cpu1.op_class::No_OpClass               114866      1.82%      1.82% # Class of executed instruction
system.cpu1.op_class::IntAlu                  4648594     73.73%     75.55% # Class of executed instruction
system.cpu1.op_class::IntMult                   12595      0.20%     75.75% # Class of executed instruction
system.cpu1.op_class::IntDiv                    41407      0.66%     76.41% # Class of executed instruction
system.cpu1.op_class::FloatAdd                     22      0.00%     76.41% # Class of executed instruction
system.cpu1.op_class::FloatCmp                      0      0.00%     76.41% # Class of executed instruction
system.cpu1.op_class::FloatCvt                      0      0.00%     76.41% # Class of executed instruction
system.cpu1.op_class::FloatMult                     0      0.00%     76.41% # Class of executed instruction
system.cpu1.op_class::FloatDiv                      0      0.00%     76.41% # Class of executed instruction
system.cpu1.op_class::FloatSqrt                     0      0.00%     76.41% # Class of executed instruction
system.cpu1.op_class::SimdAdd                       0      0.00%     76.41% # Class of executed instruction
system.cpu1.op_class::SimdAddAcc                    0      0.00%     76.41% # Class of executed instruction
system.cpu1.op_class::SimdAlu                       0      0.00%     76.41% # Class of executed instruction
system.cpu1.op_class::SimdCmp                       0      0.00%     76.41% # Class of executed instruction
system.cpu1.op_class::SimdCvt                       0      0.00%     76.41% # Class of executed instruction
system.cpu1.op_class::SimdMisc                      0      0.00%     76.41% # Class of executed instruction
system.cpu1.op_class::SimdMult                      0      0.00%     76.41% # Class of executed instruction
system.cpu1.op_class::SimdMultAcc                   0      0.00%     76.41% # Class of executed instruction
system.cpu1.op_class::SimdShift                     0      0.00%     76.41% # Class of executed instruction
system.cpu1.op_class::SimdShiftAcc                  0      0.00%     76.41% # Class of executed instruction
system.cpu1.op_class::SimdSqrt                      0      0.00%     76.41% # Class of executed instruction
system.cpu1.op_class::SimdFloatAdd                  0      0.00%     76.41% # Class of executed instruction
system.cpu1.op_class::SimdFloatAlu                  0      0.00%     76.41% # Class of executed instruction
system.cpu1.op_class::SimdFloatCmp                  0      0.00%     76.41% # Class of executed instruction
system.cpu1.op_class::SimdFloatCvt                  0      0.00%     76.41% # Class of executed instruction
system.cpu1.op_class::SimdFloatDiv                  0      0.00%     76.41% # Class of executed instruction
system.cpu1.op_class::SimdFloatMisc                 0      0.00%     76.41% # Class of executed instruction
system.cpu1.op_class::SimdFloatMult                 0      0.00%     76.41% # Class of executed instruction
system.cpu1.op_class::SimdFloatMultAcc              0      0.00%     76.41% # Class of executed instruction
system.cpu1.op_class::SimdFloatSqrt                 0      0.00%     76.41% # Class of executed instruction
system.cpu1.op_class::MemRead                  924745     14.67%     91.08% # Class of executed instruction
system.cpu1.op_class::MemWrite                 562588      8.92%    100.00% # Class of executed instruction
system.cpu1.op_class::IprAccess                     0      0.00%    100.00% # Class of executed instruction
system.cpu1.op_class::InstPrefetch                  0      0.00%    100.00% # Class of executed instruction
system.cpu1.op_class::total                   6304817                       # Class of executed instruction
system.cpu2.apic_clk_domain.clock                8000                       # Clock period in ticks
system.cpu2.numCycles                      7855652483                       # number of cpu cycles simulated
system.cpu2.numWorkItemsStarted                     0                       # number of work items this cpu started
system.cpu2.numWorkItemsCompleted                   0                       # number of work items this cpu completed
system.cpu2.kern.inst.arm                           0                       # number of arm instructions executed
system.cpu2.kern.inst.quiesce                       0                       # number of quiesce instructions executed
system.cpu2.committedInsts                    3499446                       # Number of instructions committed
system.cpu2.committedOps                      7313211                       # Number of ops (including micro ops) committed
system.cpu2.num_int_alu_accesses              7166365                       # Number of integer alu accesses
system.cpu2.num_fp_alu_accesses                  1837                       # Number of float alu accesses
system.cpu2.num_func_calls                     186986                       # number of times a function call or return occured
system.cpu2.num_conditional_control_insts       541035                       # number of instructions that are conditional controls
system.cpu2.num_int_insts                     7166365                       # number of integer instructions
system.cpu2.num_fp_insts                         1837                       # number of float instructions
system.cpu2.num_int_register_reads           14541450                       # number of times the integer registers were read
system.cpu2.num_int_register_writes           5921344                       # number of times the integer registers were written
system.cpu2.num_fp_register_reads                3081                       # number of times the floating registers were read
system.cpu2.num_fp_register_writes               1457                       # number of times the floating registers were written
system.cpu2.num_cc_register_reads             4170778                       # number of times the CC registers were read
system.cpu2.num_cc_register_writes            2252591                       # number of times the CC registers were written
system.cpu2.num_mem_refs                      1711100                       # number of memory refs
system.cpu2.num_load_insts                    1061081                       # Number of load instructions
system.cpu2.num_store_insts                    650019                       # Number of store instructions
system.cpu2.num_idle_cycles              7838719377.771904                       # Number of idle cycles
system.cpu2.num_busy_cycles              16933105.228096                       # Number of busy cycles
system.cpu2.not_idle_fraction                0.002156                       # Percentage of non-idle cycles
system.cpu2.idle_fraction                    0.997844                       # Percentage of idle cycles
system.cpu2.Branches                           791383                       # Number of branches fetched
system.cpu2.op_class::No_OpClass               120622      1.65%      1.65% # Class of executed instruction
system.cpu2.op_class::IntAlu                  5424036     74.17%     75.82% # Class of executed instruction
system.cpu2.op_class::IntMult                   13341      0.18%     76.00% # Class of executed instruction
system.cpu2.op_class::IntDiv                    42834      0.59%     76.58% # Class of executed instruction
system.cpu2.op_class::FloatAdd                   1366      0.02%     76.60% # Class of executed instruction
system.cpu2.op_class::FloatCmp                      0      0.00%     76.60% # Class of executed instruction
system.cpu2.op_class::FloatCvt                      0      0.00%     76.60% # Class of executed instruction
system.cpu2.op_class::FloatMult                     0      0.00%     76.60% # Class of executed instruction
system.cpu2.op_class::FloatDiv                      0      0.00%     76.60% # Class of executed instruction
system.cpu2.op_class::FloatSqrt                     0      0.00%     76.60% # Class of executed instruction
system.cpu2.op_class::SimdAdd                       0      0.00%     76.60% # Class of executed instruction
system.cpu2.op_class::SimdAddAcc                    0      0.00%     76.60% # Class of executed instruction
system.cpu2.op_class::SimdAlu                       0      0.00%     76.60% # Class of executed instruction
system.cpu2.op_class::SimdCmp                       0      0.00%     76.60% # Class of executed instruction
system.cpu2.op_class::SimdCvt                       0      0.00%     76.60% # Class of executed instruction
system.cpu2.op_class::SimdMisc                      0      0.00%     76.60% # Class of executed instruction
system.cpu2.op_class::SimdMult                      0      0.00%     76.60% # Class of executed instruction
system.cpu2.op_class::SimdMultAcc                   0      0.00%     76.60% # Class of executed instruction
system.cpu2.op_class::SimdShift                     0      0.00%     76.60% # Class of executed instruction
system.cpu2.op_class::SimdShiftAcc                  0      0.00%     76.60% # Class of executed instruction
system.cpu2.op_class::SimdSqrt                      0      0.00%     76.60% # Class of executed instruction
system.cpu2.op_class::SimdFloatAdd                  0      0.00%     76.60% # Class of executed instruction
system.cpu2.op_class::SimdFloatAlu                  0      0.00%     76.60% # Class of executed instruction
system.cpu2.op_class::SimdFloatCmp                  0      0.00%     76.60% # Class of executed instruction
system.cpu2.op_class::SimdFloatCvt                  0      0.00%     76.60% # Class of executed instruction
system.cpu2.op_class::SimdFloatDiv                  0      0.00%     76.60% # Class of executed instruction
system.cpu2.op_class::SimdFloatMisc                 0      0.00%     76.60% # Class of executed instruction
system.cpu2.op_class::SimdFloatMult                 0      0.00%     76.60% # Class of executed instruction
system.cpu2.op_class::SimdFloatMultAcc              0      0.00%     76.60% # Class of executed instruction
system.cpu2.op_class::SimdFloatSqrt                 0      0.00%     76.60% # Class of executed instruction
system.cpu2.op_class::MemRead                 1061081     14.51%     91.11% # Class of executed instruction
system.cpu2.op_class::MemWrite                 650019      8.89%    100.00% # Class of executed instruction
system.cpu2.op_class::IprAccess                     0      0.00%    100.00% # Class of executed instruction
system.cpu2.op_class::InstPrefetch                  0      0.00%    100.00% # Class of executed instruction
system.cpu2.op_class::total                   7313299                       # Class of executed instruction
system.cpu3.apic_clk_domain.clock                8000                       # Clock period in ticks
system.cpu3.numCycles                      7854417609                       # number of cpu cycles simulated
system.cpu3.numWorkItemsStarted                     0                       # number of work items this cpu started
system.cpu3.numWorkItemsCompleted                   0                       # number of work items this cpu completed
system.cpu3.kern.inst.arm                           0                       # number of arm instructions executed
system.cpu3.kern.inst.quiesce                       0                       # number of quiesce instructions executed
system.cpu3.committedInsts                   19325074                       # Number of instructions committed
system.cpu3.committedOps                     34164214                       # Number of ops (including micro ops) committed
system.cpu3.num_int_alu_accesses             28766975                       # Number of integer alu accesses
system.cpu3.num_fp_alu_accesses               8399271                       # Number of float alu accesses
system.cpu3.num_func_calls                     588167                       # number of times a function call or return occured
system.cpu3.num_conditional_control_insts      2047003                       # number of instructions that are conditional controls
system.cpu3.num_int_insts                    28766975                       # number of integer instructions
system.cpu3.num_fp_insts                      8399271                       # number of float instructions
system.cpu3.num_int_register_reads           55516839                       # number of times the integer registers were read
system.cpu3.num_int_register_writes          21891683                       # number of times the integer registers were written
system.cpu3.num_fp_register_reads            14064247                       # number of times the floating registers were read
system.cpu3.num_fp_register_writes            7474237                       # number of times the floating registers were written
system.cpu3.num_cc_register_reads            13977728                       # number of times the CC registers were read
system.cpu3.num_cc_register_writes           10279436                       # number of times the CC registers were written
system.cpu3.num_mem_refs                      7658415                       # number of memory refs
system.cpu3.num_load_insts                    5705618                       # Number of load instructions
system.cpu3.num_store_insts                   1952797                       # Number of store instructions
system.cpu3.num_idle_cycles              7775965712.049512                       # Number of idle cycles
system.cpu3.num_busy_cycles              78451896.950488                       # Number of busy cycles
system.cpu3.not_idle_fraction                0.009988                       # Percentage of non-idle cycles
system.cpu3.idle_fraction                    0.990012                       # Percentage of idle cycles
system.cpu3.Branches                          2787552                       # Number of branches fetched
system.cpu3.op_class::No_OpClass               127229      0.37%      0.37% # Class of executed instruction
system.cpu3.op_class::IntAlu                 22503706     65.87%     66.24% # Class of executed instruction
system.cpu3.op_class::IntMult                  213546      0.63%     66.87% # Class of executed instruction
system.cpu3.op_class::IntDiv                    43164      0.13%     66.99% # Class of executed instruction
system.cpu3.op_class::FloatAdd                3618197     10.59%     77.58% # Class of executed instruction
system.cpu3.op_class::FloatCmp                      0      0.00%     77.58% # Class of executed instruction
system.cpu3.op_class::FloatCvt                      0      0.00%     77.58% # Class of executed instruction
system.cpu3.op_class::FloatMult                     0      0.00%     77.58% # Class of executed instruction
system.cpu3.op_class::FloatDiv                      0      0.00%     77.58% # Class of executed instruction
system.cpu3.op_class::FloatSqrt                     0      0.00%     77.58% # Class of executed instruction
system.cpu3.op_class::SimdAdd                       0      0.00%     77.58% # Class of executed instruction
system.cpu3.op_class::SimdAddAcc                    0      0.00%     77.58% # Class of executed instruction
system.cpu3.op_class::SimdAlu                       0      0.00%     77.58% # Class of executed instruction
system.cpu3.op_class::SimdCmp                       0      0.00%     77.58% # Class of executed instruction
system.cpu3.op_class::SimdCvt                       0      0.00%     77.58% # Class of executed instruction
system.cpu3.op_class::SimdMisc                      0      0.00%     77.58% # Class of executed instruction
system.cpu3.op_class::SimdMult                      0      0.00%     77.58% # Class of executed instruction
system.cpu3.op_class::SimdMultAcc                   0      0.00%     77.58% # Class of executed instruction
system.cpu3.op_class::SimdShift                     0      0.00%     77.58% # Class of executed instruction
system.cpu3.op_class::SimdShiftAcc                  0      0.00%     77.58% # Class of executed instruction
system.cpu3.op_class::SimdSqrt                      0      0.00%     77.58% # Class of executed instruction
system.cpu3.op_class::SimdFloatAdd                  0      0.00%     77.58% # Class of executed instruction
system.cpu3.op_class::SimdFloatAlu                  0      0.00%     77.58% # Class of executed instruction
system.cpu3.op_class::SimdFloatCmp                  0      0.00%     77.58% # Class of executed instruction
system.cpu3.op_class::SimdFloatCvt                  0      0.00%     77.58% # Class of executed instruction
system.cpu3.op_class::SimdFloatDiv                  0      0.00%     77.58% # Class of executed instruction
system.cpu3.op_class::SimdFloatMisc                 0      0.00%     77.58% # Class of executed instruction
system.cpu3.op_class::SimdFloatMult                 0      0.00%     77.58% # Class of executed instruction
system.cpu3.op_class::SimdFloatMultAcc              0      0.00%     77.58% # Class of executed instruction
system.cpu3.op_class::SimdFloatSqrt                 0      0.00%     77.58% # Class of executed instruction
system.cpu3.op_class::MemRead                 5705618     16.70%     94.28% # Class of executed instruction
system.cpu3.op_class::MemWrite                1952797      5.72%    100.00% # Class of executed instruction
system.cpu3.op_class::IprAccess                     0      0.00%    100.00% # Class of executed instruction
system.cpu3.op_class::InstPrefetch                  0      0.00%    100.00% # Class of executed instruction
system.cpu3.op_class::total                  34164257                       # Class of executed instruction
system.iobus.trans_dist::ReadReq                  113                       # Transaction distribution
system.iobus.trans_dist::ReadResp                 113                       # Transaction distribution
system.iobus.trans_dist::WriteReq                4056                       # Transaction distribution
system.iobus.trans_dist::WriteResp               4056                       # Transaction distribution
system.iobus.trans_dist::MessageReq                19                       # Transaction distribution
system.iobus.trans_dist::MessageResp               19                       # Transaction distribution
system.iobus.pkt_count_system.pc.south_bridge.io_apic.int_master::system.ruby.l0_cntrl0.sequencer.pio-slave-port            4                       # Packet count per connected master and slave (bytes)
system.iobus.pkt_count_system.pc.south_bridge.io_apic.int_master::system.ruby.l0_cntrl1.sequencer.pio-slave-port            4                       # Packet count per connected master and slave (bytes)
system.iobus.pkt_count_system.pc.south_bridge.io_apic.int_master::system.ruby.l0_cntrl2.sequencer.pio-slave-port            4                       # Packet count per connected master and slave (bytes)
system.iobus.pkt_count_system.pc.south_bridge.io_apic.int_master::system.ruby.l0_cntrl3.sequencer.pio-slave-port            4                       # Packet count per connected master and slave (bytes)
system.iobus.pkt_count_system.pc.south_bridge.io_apic.int_master::total           16                       # Packet count per connected master and slave (bytes)
system.iobus.pkt_count_system.ruby.l0_cntrl0.sequencer.mem-master-port::system.pc.south_bridge.ide.pio           12                       # Packet count per connected master and slave (bytes)
system.iobus.pkt_count_system.ruby.l0_cntrl0.sequencer.mem-master-port::system.pc.south_bridge.io_apic.pio            8                       # Packet count per connected master and slave (bytes)
system.iobus.pkt_count_system.ruby.l0_cntrl0.sequencer.mem-master-port::system.ruby.l0_cntrl0.sequencer.pio-slave-port         1994                       # Packet count per connected master and slave (bytes)
system.iobus.pkt_count_system.ruby.l0_cntrl0.sequencer.mem-master-port::system.ruby.l0_cntrl1.sequencer.pio-slave-port            6                       # Packet count per connected master and slave (bytes)
system.iobus.pkt_count_system.ruby.l0_cntrl0.sequencer.mem-master-port::system.ruby.l0_cntrl2.sequencer.pio-slave-port            2                       # Packet count per connected master and slave (bytes)
system.iobus.pkt_count_system.ruby.l0_cntrl0.sequencer.mem-master-port::system.ruby.l0_cntrl3.sequencer.pio-slave-port            4                       # Packet count per connected master and slave (bytes)
system.iobus.pkt_count_system.ruby.l0_cntrl0.sequencer.mem-master-port::total         2026                       # Packet count per connected master and slave (bytes)
system.iobus.pkt_count_system.ruby.l0_cntrl1.sequencer.mem-master-port::system.pc.south_bridge.ide.pio           80                       # Packet count per connected master and slave (bytes)
system.iobus.pkt_count_system.ruby.l0_cntrl1.sequencer.mem-master-port::system.pc.south_bridge.io_apic.pio            8                       # Packet count per connected master and slave (bytes)
system.iobus.pkt_count_system.ruby.l0_cntrl1.sequencer.mem-master-port::system.pc.com_1.pio            2                       # Packet count per connected master and slave (bytes)
system.iobus.pkt_count_system.ruby.l0_cntrl1.sequencer.mem-master-port::system.ruby.l0_cntrl1.sequencer.pio-slave-port         1984                       # Packet count per connected master and slave (bytes)
system.iobus.pkt_count_system.ruby.l0_cntrl1.sequencer.mem-master-port::system.ruby.l0_cntrl2.sequencer.pio-slave-port            2                       # Packet count per connected master and slave (bytes)
system.iobus.pkt_count_system.ruby.l0_cntrl1.sequencer.mem-master-port::total         2076                       # Packet count per connected master and slave (bytes)
system.iobus.pkt_count_system.ruby.l0_cntrl2.sequencer.mem-master-port::system.pc.south_bridge.ide.pio           46                       # Packet count per connected master and slave (bytes)
system.iobus.pkt_count_system.ruby.l0_cntrl2.sequencer.mem-master-port::system.pc.south_bridge.io_apic.pio            6                       # Packet count per connected master and slave (bytes)
system.iobus.pkt_count_system.ruby.l0_cntrl2.sequencer.mem-master-port::system.pc.com_1.pio          174                       # Packet count per connected master and slave (bytes)
system.iobus.pkt_count_system.ruby.l0_cntrl2.sequencer.mem-master-port::system.ruby.l0_cntrl1.sequencer.pio-slave-port            2                       # Packet count per connected master and slave (bytes)
system.iobus.pkt_count_system.ruby.l0_cntrl2.sequencer.mem-master-port::system.ruby.l0_cntrl2.sequencer.pio-slave-port         1984                       # Packet count per connected master and slave (bytes)
system.iobus.pkt_count_system.ruby.l0_cntrl2.sequencer.mem-master-port::system.ruby.l0_cntrl3.sequencer.pio-slave-port            2                       # Packet count per connected master and slave (bytes)
system.iobus.pkt_count_system.ruby.l0_cntrl2.sequencer.mem-master-port::total         2214                       # Packet count per connected master and slave (bytes)
system.iobus.pkt_count_system.ruby.l0_cntrl3.sequencer.mem-master-port::system.pc.south_bridge.ide.pio           46                       # Packet count per connected master and slave (bytes)
system.iobus.pkt_count_system.ruby.l0_cntrl3.sequencer.mem-master-port::system.pc.south_bridge.io_apic.pio            8                       # Packet count per connected master and slave (bytes)
system.iobus.pkt_count_system.ruby.l0_cntrl3.sequencer.mem-master-port::system.ruby.l0_cntrl0.sequencer.pio-slave-port            2                       # Packet count per connected master and slave (bytes)
system.iobus.pkt_count_system.ruby.l0_cntrl3.sequencer.mem-master-port::system.ruby.l0_cntrl1.sequencer.pio-slave-port            2                       # Packet count per connected master and slave (bytes)
system.iobus.pkt_count_system.ruby.l0_cntrl3.sequencer.mem-master-port::system.ruby.l0_cntrl3.sequencer.pio-slave-port         1986                       # Packet count per connected master and slave (bytes)
system.iobus.pkt_count_system.ruby.l0_cntrl3.sequencer.mem-master-port::total         2044                       # Packet count per connected master and slave (bytes)
system.iobus.pkt_count::total                    8376                       # Packet count per connected master and slave (bytes)
system.iobus.pkt_size_system.pc.south_bridge.io_apic.int_master::system.ruby.l0_cntrl0.sequencer.pio-slave-port            8                       # Cumulative packet size per connected master and slave (bytes)
system.iobus.pkt_size_system.pc.south_bridge.io_apic.int_master::system.ruby.l0_cntrl1.sequencer.pio-slave-port            8                       # Cumulative packet size per connected master and slave (bytes)
system.iobus.pkt_size_system.pc.south_bridge.io_apic.int_master::system.ruby.l0_cntrl2.sequencer.pio-slave-port            8                       # Cumulative packet size per connected master and slave (bytes)
system.iobus.pkt_size_system.pc.south_bridge.io_apic.int_master::system.ruby.l0_cntrl3.sequencer.pio-slave-port            8                       # Cumulative packet size per connected master and slave (bytes)
system.iobus.pkt_size_system.pc.south_bridge.io_apic.int_master::total           32                       # Cumulative packet size per connected master and slave (bytes)
system.iobus.pkt_size_system.ruby.l0_cntrl0.sequencer.mem-master-port::system.pc.south_bridge.ide.pio            6                       # Cumulative packet size per connected master and slave (bytes)
system.iobus.pkt_size_system.ruby.l0_cntrl0.sequencer.mem-master-port::system.pc.south_bridge.io_apic.pio           16                       # Cumulative packet size per connected master and slave (bytes)
system.iobus.pkt_size_system.ruby.l0_cntrl0.sequencer.mem-master-port::system.ruby.l0_cntrl0.sequencer.pio-slave-port         3988                       # Cumulative packet size per connected master and slave (bytes)
system.iobus.pkt_size_system.ruby.l0_cntrl0.sequencer.mem-master-port::system.ruby.l0_cntrl1.sequencer.pio-slave-port           12                       # Cumulative packet size per connected master and slave (bytes)
system.iobus.pkt_size_system.ruby.l0_cntrl0.sequencer.mem-master-port::system.ruby.l0_cntrl2.sequencer.pio-slave-port            4                       # Cumulative packet size per connected master and slave (bytes)
system.iobus.pkt_size_system.ruby.l0_cntrl0.sequencer.mem-master-port::system.ruby.l0_cntrl3.sequencer.pio-slave-port            8                       # Cumulative packet size per connected master and slave (bytes)
system.iobus.pkt_size_system.ruby.l0_cntrl0.sequencer.mem-master-port::total         4034                       # Cumulative packet size per connected master and slave (bytes)
system.iobus.pkt_size_system.ruby.l0_cntrl1.sequencer.mem-master-port::system.pc.south_bridge.ide.pio           46                       # Cumulative packet size per connected master and slave (bytes)
system.iobus.pkt_size_system.ruby.l0_cntrl1.sequencer.mem-master-port::system.pc.south_bridge.io_apic.pio           16                       # Cumulative packet size per connected master and slave (bytes)
system.iobus.pkt_size_system.ruby.l0_cntrl1.sequencer.mem-master-port::system.pc.com_1.pio            1                       # Cumulative packet size per connected master and slave (bytes)
system.iobus.pkt_size_system.ruby.l0_cntrl1.sequencer.mem-master-port::system.ruby.l0_cntrl1.sequencer.pio-slave-port         3968                       # Cumulative packet size per connected master and slave (bytes)
system.iobus.pkt_size_system.ruby.l0_cntrl1.sequencer.mem-master-port::system.ruby.l0_cntrl2.sequencer.pio-slave-port            4                       # Cumulative packet size per connected master and slave (bytes)
system.iobus.pkt_size_system.ruby.l0_cntrl1.sequencer.mem-master-port::total         4035                       # Cumulative packet size per connected master and slave (bytes)
system.iobus.pkt_size_system.ruby.l0_cntrl2.sequencer.mem-master-port::system.pc.south_bridge.ide.pio           26                       # Cumulative packet size per connected master and slave (bytes)
system.iobus.pkt_size_system.ruby.l0_cntrl2.sequencer.mem-master-port::system.pc.south_bridge.io_apic.pio           12                       # Cumulative packet size per connected master and slave (bytes)
system.iobus.pkt_size_system.ruby.l0_cntrl2.sequencer.mem-master-port::system.pc.com_1.pio           87                       # Cumulative packet size per connected master and slave (bytes)
system.iobus.pkt_size_system.ruby.l0_cntrl2.sequencer.mem-master-port::system.ruby.l0_cntrl1.sequencer.pio-slave-port            4                       # Cumulative packet size per connected master and slave (bytes)
system.iobus.pkt_size_system.ruby.l0_cntrl2.sequencer.mem-master-port::system.ruby.l0_cntrl2.sequencer.pio-slave-port         3968                       # Cumulative packet size per connected master and slave (bytes)
system.iobus.pkt_size_system.ruby.l0_cntrl2.sequencer.mem-master-port::system.ruby.l0_cntrl3.sequencer.pio-slave-port            4                       # Cumulative packet size per connected master and slave (bytes)
system.iobus.pkt_size_system.ruby.l0_cntrl2.sequencer.mem-master-port::total         4101                       # Cumulative packet size per connected master and slave (bytes)
system.iobus.pkt_size_system.ruby.l0_cntrl3.sequencer.mem-master-port::system.pc.south_bridge.ide.pio           26                       # Cumulative packet size per connected master and slave (bytes)
system.iobus.pkt_size_system.ruby.l0_cntrl3.sequencer.mem-master-port::system.pc.south_bridge.io_apic.pio           16                       # Cumulative packet size per connected master and slave (bytes)
system.iobus.pkt_size_system.ruby.l0_cntrl3.sequencer.mem-master-port::system.ruby.l0_cntrl0.sequencer.pio-slave-port            4                       # Cumulative packet size per connected master and slave (bytes)
system.iobus.pkt_size_system.ruby.l0_cntrl3.sequencer.mem-master-port::system.ruby.l0_cntrl1.sequencer.pio-slave-port            4                       # Cumulative packet size per connected master and slave (bytes)
system.iobus.pkt_size_system.ruby.l0_cntrl3.sequencer.mem-master-port::system.ruby.l0_cntrl3.sequencer.pio-slave-port         3972                       # Cumulative packet size per connected master and slave (bytes)
system.iobus.pkt_size_system.ruby.l0_cntrl3.sequencer.mem-master-port::total         4022                       # Cumulative packet size per connected master and slave (bytes)
system.iobus.pkt_size::total                    16224                       # Cumulative packet size per connected master and slave (bytes)
system.iobus.reqLayer2.occupancy               159500                       # Layer occupancy (ticks)
system.iobus.reqLayer2.utilization                0.0                       # Layer utilization (%)
system.iobus.reqLayer8.occupancy                26996                       # Layer occupancy (ticks)
system.iobus.reqLayer8.utilization                0.0                       # Layer utilization (%)
system.iobus.reqLayer12.occupancy              113500                       # Layer occupancy (ticks)
system.iobus.reqLayer12.utilization               0.0                       # Layer utilization (%)
system.iobus.reqLayer17.occupancy             2261480                       # Layer occupancy (ticks)
system.iobus.reqLayer17.utilization               0.0                       # Layer utilization (%)
system.iobus.reqLayer18.occupancy             2492498                       # Layer occupancy (ticks)
system.iobus.reqLayer18.utilization               0.0                       # Layer utilization (%)
system.iobus.reqLayer19.occupancy             2483497                       # Layer occupancy (ticks)
system.iobus.reqLayer19.utilization               0.0                       # Layer utilization (%)
system.iobus.reqLayer20.occupancy             2482993                       # Layer occupancy (ticks)
system.iobus.reqLayer20.utilization               0.0                       # Layer utilization (%)
system.iobus.respLayer0.occupancy               12996                       # Layer occupancy (ticks)
system.iobus.respLayer0.utilization               0.0                       # Layer utilization (%)
system.iobus.respLayer2.occupancy             1521000                       # Layer occupancy (ticks)
system.iobus.respLayer2.utilization               0.0                       # Layer utilization (%)
system.iobus.respLayer4.occupancy             1549000                       # Layer occupancy (ticks)
system.iobus.respLayer4.utilization               0.0                       # Layer utilization (%)
system.iobus.respLayer6.occupancy             1679000                       # Layer occupancy (ticks)
system.iobus.respLayer6.utilization               0.0                       # Layer utilization (%)
system.iobus.respLayer8.occupancy             1530500                       # Layer occupancy (ticks)
system.iobus.respLayer8.utilization               0.0                       # Layer utilization (%)
system.pc.south_bridge.ide.disks.dma_read_full_pages            1                       # Number of full page size DMA reads (not PRD).
system.pc.south_bridge.ide.disks.dma_read_bytes         4096                       # Number of bytes transfered via DMA reads (not PRD).
system.pc.south_bridge.ide.disks.dma_read_txs            1                       # Number of DMA read transactions (not PRD).
system.pc.south_bridge.ide.disks.dma_write_full_pages           45                       # Number of full page size DMA writes.
system.pc.south_bridge.ide.disks.dma_write_bytes       184320                       # Number of bytes transfered via DMA writes.
system.pc.south_bridge.ide.disks.dma_write_txs           45                       # Number of DMA write transactions.
system.ruby.clk_domain.clock                      500                       # Clock period in ticks
system.ruby.delayHist::bucket_size                  4                       # delay histogram for all message
system.ruby.delayHist::max_bucket                  39                       # delay histogram for all message
system.ruby.delayHist::samples              181800075                       # delay histogram for all message
system.ruby.delayHist::mean                  0.136580                       # delay histogram for all message
system.ruby.delayHist::stdev                 1.036322                       # delay histogram for all message
system.ruby.delayHist                    |   178697246     98.29%     98.29% |        2060      0.00%     98.29% |     3100410      1.71%    100.00% |         117      0.00%    100.00% |         217      0.00%    100.00% |           3      0.00%    100.00% |          22      0.00%    100.00% |           0      0.00%    100.00% |           0      0.00%    100.00% |           0      0.00%    100.00% # delay histogram for all message
system.ruby.delayHist::total                181800075                       # delay histogram for all message
system.ruby.outstanding_req_hist_seqr::bucket_size            1                      
system.ruby.outstanding_req_hist_seqr::max_bucket            9                      
system.ruby.outstanding_req_hist_seqr::samples   3590564995                      
system.ruby.outstanding_req_hist_seqr::mean     1.000000                      
system.ruby.outstanding_req_hist_seqr::gmean     1.000000                      
system.ruby.outstanding_req_hist_seqr::stdev     0.000253                      
system.ruby.outstanding_req_hist_seqr    |           0      0.00%      0.00% |  3590564766    100.00%    100.00% |         229      0.00%    100.00% |           0      0.00%    100.00% |           0      0.00%    100.00% |           0      0.00%    100.00% |           0      0.00%    100.00% |           0      0.00%    100.00% |           0      0.00%    100.00% |           0      0.00%    100.00%
system.ruby.outstanding_req_hist_seqr::total   3590564995                      
system.ruby.latency_hist_seqr::bucket_size          128                      
system.ruby.latency_hist_seqr::max_bucket         1279                      
system.ruby.latency_hist_seqr::samples     3590564995                      
system.ruby.latency_hist_seqr::mean          1.198942                      
system.ruby.latency_hist_seqr::gmean         1.067497                      
system.ruby.latency_hist_seqr::stdev         1.376211                      
system.ruby.latency_hist_seqr            |  3590559678    100.00%    100.00% |        4756      0.00%    100.00% |          96      0.00%    100.00% |         175      0.00%    100.00% |         200      0.00%    100.00% |          79      0.00%    100.00% |           8      0.00%    100.00% |           2      0.00%    100.00% |           1      0.00%    100.00% |           0      0.00%    100.00%
system.ruby.latency_hist_seqr::total       3590564995                      
[...]
system.ruby.L1Cache_Controller.Ack::total        37916                      
system.ruby.L1Cache_Controller.Ack_all   |        8851     40.70%     40.70% |        4560     20.97%     61.67% |        4879     22.44%     84.11% |        3456     15.89%    100.00%
system.ruby.L1Cache_Controller.Ack_all::total        21746                      
system.ruby.L1Cache_Controller.WB_Ack    |     8197521     96.81%     96.81% |       72132      0.85%     97.66% |       69982      0.83%     98.49% |      128189      1.51%    100.00%
system.ruby.L1Cache_Controller.WB_Ack::total      8467824                      
system.ruby.L1Cache_Controller.I.Load    |     6476627     94.04%     94.04% |      126816      1.84%     95.88% |      119509      1.74%     97.62% |      163935      2.38%    100.00%
system.ruby.L1Cache_Controller.I.Load::total      6886887                      
system.ruby.L1Cache_Controller.I.Store   |     2346795     96.62%     96.62% |       18969      0.78%     97.40% |       23502      0.97%     98.37% |       39582      1.63%    100.00%
system.ruby.L1Cache_Controller.I.Store::total      2428848                      
system.ruby.L1Cache_Controller.I.Inv     |        1386      7.40%      7.40% |        5559     29.69%     37.09% |        5835     31.16%     68.25% |        5946     31.75%    100.00%
system.ruby.L1Cache_Controller.I.Inv::total        18726                      
system.ruby.L1Cache_Controller.S.Load    |    18626673     95.36%     95.36% |      291548      1.49%     96.85% |      297112      1.52%     98.37% |      318323      1.63%    100.00%
system.ruby.L1Cache_Controller.S.Load::total     19533656                      
system.ruby.L1Cache_Controller.S.Store   |        5843     39.26%     39.26% |        3282     22.05%     61.31% |        3442     23.13%     84.43% |        2317     15.57%    100.00%
system.ruby.L1Cache_Controller.S.Store::total        14884                      
system.ruby.L1Cache_Controller.S.L0_Invalidate_Own |      619198     77.12%     77.12% |       61268      7.63%     84.75% |       59334      7.39%     92.14% |       63137      7.86%    100.00%
system.ruby.L1Cache_Controller.S.L0_Invalidate_Own::total       802937                      
system.ruby.L1Cache_Controller.S.L0_Invalidate_Else |         300      1.59%      1.59% |        7513     39.80%     41.39% |        7244     38.38%     79.77% |        3818     20.23%    100.00%
system.ruby.L1Cache_Controller.S.L0_Invalidate_Else::total        18875                      
system.ruby.L1Cache_Controller.SS.Load   |         445     10.37%     10.37% |        1216     28.34%     38.72% |        1376     32.07%     70.79% |        1253     29.21%    100.00%
system.ruby.L1Cache_Controller.SS.Load::total         4290                      
system.ruby.L1Cache_Controller.SS.Store  |          36     12.24%     12.24% |          98     33.33%     45.58% |         111     37.76%     83.33% |          49     16.67%    100.00%
system.ruby.L1Cache_Controller.SS.Store::total          294                      
system.ruby.L1Cache_Controller.SS.Inv    |        1261      4.01%      4.01% |       10120     32.15%     36.15% |       10866     34.52%     70.67% |        9232     29.33%    100.00%
system.ruby.L1Cache_Controller.SS.Inv::total        31479                      
system.ruby.L1Cache_Controller.SS.L1_Replacement |      623378     76.89%     76.89% |       62142      7.66%     84.55% |       60219      7.43%     91.98% |       65032      8.02%    100.00%
system.ruby.L1Cache_Controller.SS.L1_Replacement::total       810771                      
system.ruby.L1Cache_Controller.E.WriteBack |     5625256     96.61%     96.61% |       55128      0.95%     97.56% |       49148      0.84%     98.40% |       93021      1.60%    100.00%
system.ruby.L1Cache_Controller.E.WriteBack::total      5822553                      
system.ruby.L1Cache_Controller.E.L0_Invalidate_Own |      226170     98.12%     98.12% |         716      0.31%     98.43% |        1542      0.67%     99.10% |        2071      0.90%    100.00%
system.ruby.L1Cache_Controller.E.L0_Invalidate_Own::total       230499                      
system.ruby.L1Cache_Controller.E.L0_Invalidate_Else |          48      4.42%      4.42% |         110     10.12%     14.54% |         125     11.50%     26.03% |         804     73.97%    100.00%
system.ruby.L1Cache_Controller.E.L0_Invalidate_Else::total         1087                      
system.ruby.L1Cache_Controller.EE.Inv    |           1     12.50%     12.50% |           4     50.00%     62.50% |           0      0.00%     62.50% |           3     37.50%    100.00%
system.ruby.L1Cache_Controller.EE.Inv::total            8                      
system.ruby.L1Cache_Controller.EE.L1_Replacement |      216472     98.20%     98.20% |         619      0.28%     98.48% |        1443      0.65%     99.14% |        1902      0.86%    100.00%
system.ruby.L1Cache_Controller.EE.L1_Replacement::total       220436                      
system.ruby.L1Cache_Controller.EE.Fwd_GETX |           2     18.18%     18.18% |           5     45.45%     63.64% |           3     27.27%     90.91% |           1      9.09%    100.00%
system.ruby.L1Cache_Controller.EE.Fwd_GETX::total           11                      
system.ruby.L1Cache_Controller.EE.Fwd_GETS |          30      3.14%      3.14% |          68      7.12%     10.26% |          90      9.42%     19.69% |         767     80.31%    100.00%
system.ruby.L1Cache_Controller.EE.Fwd_GETS::total          955                      
system.ruby.L1Cache_Controller.M.WriteBack |   109515107     98.63%     98.63% |      197828      0.18%     98.80% |      236568      0.21%     99.02% |     1091113      0.98%    100.00%
system.ruby.L1Cache_Controller.M.WriteBack::total    111040616                      
system.ruby.L1Cache_Controller.M.L0_Invalidate_Own |      289490     95.79%     95.79% |        3614      1.20%     96.98% |        3383      1.12%     98.10% |        5739      1.90%    100.00%
system.ruby.L1Cache_Controller.M.L0_Invalidate_Own::total       302226                      
system.ruby.L1Cache_Controller.M.L0_Invalidate_Else |        1247     14.09%     14.09% |        2477     28.00%     42.09% |        2841     32.11%     74.20% |        2283     25.80%    100.00%
system.ruby.L1Cache_Controller.M.L0_Invalidate_Else::total         8848                      
system.ruby.L1Cache_Controller.MM.Load   |    72473884     98.63%     98.63% |      125315      0.17%     98.80% |      153073      0.21%     99.01% |      727718      0.99%    100.00%
system.ruby.L1Cache_Controller.MM.Load::total     73479990                      
system.ruby.L1Cache_Controller.MM.Store  |    34979285     98.73%     98.73% |       56258      0.16%     98.89% |       62657      0.18%     99.07% |      329463      0.93%    100.00%
system.ruby.L1Cache_Controller.MM.Store::total     35427663                      
system.ruby.L1Cache_Controller.MM.Inv    |         191     32.54%     32.54% |         171     29.13%     61.67% |          83     14.14%     75.81% |         142     24.19%    100.00%
system.ruby.L1Cache_Controller.MM.Inv::total          587                      
system.ruby.L1Cache_Controller.MM.L1_Replacement |     7981049     96.77%     96.77% |       71513      0.87%     97.64% |       68539      0.83%     98.47% |      126287      1.53%    100.00%
system.ruby.L1Cache_Controller.MM.L1_Replacement::total      8247388                      
system.ruby.L1Cache_Controller.MM.Fwd_GETX |        1024     20.25%     20.25% |        1288     25.47%     45.72% |        1827     36.13%     81.85% |         918     18.15%    100.00%
system.ruby.L1Cache_Controller.MM.Fwd_GETX::total         5057                      
system.ruby.L1Cache_Controller.MM.Fwd_GETS |        5362     22.62%     22.62% |        4645     19.60%     42.22% |        5852     24.69%     66.91% |        7844     33.09%    100.00%
system.ruby.L1Cache_Controller.MM.Fwd_GETS::total        23703                      
system.ruby.L1Cache_Controller.IS.Data_Exclusive |     5851472     96.65%     96.65% |       55957      0.92%     97.58% |       50811      0.84%     98.42% |       95883      1.58%    100.00%
system.ruby.L1Cache_Controller.IS.Data_Exclusive::total      6054123                      
system.ruby.L1Cache_Controller.IS.DataS_fromL1 |        1623      6.58%      6.58% |        8615     34.94%     41.52% |        5618     22.78%     64.30% |        8802     35.70%    100.00%
system.ruby.L1Cache_Controller.IS.DataS_fromL1::total        24658                      
system.ruby.L1Cache_Controller.IS.Data_all_Acks |      623532     77.16%     77.16% |       62244      7.70%     84.86% |       63080      7.81%     92.67% |       59250      7.33%    100.00%
system.ruby.L1Cache_Controller.IS.Data_all_Acks::total       808106                      
system.ruby.L1Cache_Controller.IM.Data   |        2972     45.24%     45.24% |        1181     17.98%     63.21% |        1326     20.18%     83.39% |        1091     16.61%    100.00%
system.ruby.L1Cache_Controller.IM.Data::total         6570                      
system.ruby.L1Cache_Controller.IM.Data_all_Acks |     2343823     96.76%     96.76% |       17789      0.73%     97.50% |       22176      0.92%     98.41% |       38492      1.59%    100.00%
system.ruby.L1Cache_Controller.IM.Data_all_Acks::total      2422280                      
system.ruby.L1Cache_Controller.SM.Inv    |           0      0.00%      0.00% |           1     50.00%     50.00% |           0      0.00%     50.00% |           1     50.00%    100.00%
system.ruby.L1Cache_Controller.SM.Inv::total            2                      
system.ruby.L1Cache_Controller.SM.Ack    |       19972     52.67%     52.67% |        6587     17.37%     70.05% |        6758     17.82%     87.87% |        4599     12.13%    100.00%
system.ruby.L1Cache_Controller.SM.Ack::total        37916                      
system.ruby.L1Cache_Controller.SM.Ack_all |        8851     40.70%     40.70% |        4560     20.97%     61.67% |        4879     22.44%     84.11% |        3456     15.89%    100.00%
system.ruby.L1Cache_Controller.SM.Ack_all::total        21746                      
system.ruby.L1Cache_Controller.M_I.Fwd_GETX |           1    100.00%    100.00% |           0      0.00%    100.00% |           0      0.00%    100.00% |           0      0.00%    100.00%
system.ruby.L1Cache_Controller.M_I.Fwd_GETX::total            1                      
system.ruby.L1Cache_Controller.M_I.WB_Ack |     8197520     96.81%     96.81% |       72132      0.85%     97.66% |       69982      0.83%     98.49% |      128189      1.51%    100.00%
system.ruby.L1Cache_Controller.M_I.WB_Ack::total      8467823                      
system.ruby.L1Cache_Controller.SINK_WB_ACK.WB_Ack |           1    100.00%    100.00% |           0      0.00%    100.00% |           0      0.00%    100.00% |           0      0.00%    100.00%
system.ruby.L1Cache_Controller.SINK_WB_ACK.WB_Ack::total            1                      
system.ruby.L1Cache_Controller.S_IL0.L0_Invalidate_Own |      619198     77.12%     77.12% |       61268      7.63%     84.75% |       59334      7.39%     92.14% |       63137      7.86%    100.00%
system.ruby.L1Cache_Controller.S_IL0.L0_Invalidate_Own::total       802937                      
system.ruby.L1Cache_Controller.S_IL0.L0_Invalidate_Else |         300      1.59%      1.59% |        7513     39.80%     41.39% |        7244     38.38%     79.77% |        3818     20.23%    100.00%
system.ruby.L1Cache_Controller.S_IL0.L0_Invalidate_Else::total        18875                      
system.ruby.L1Cache_Controller.S_IL0.L0_Ack |      619498     75.38%     75.38% |       68781      8.37%     83.75% |       66578      8.10%     91.85% |       66955      8.15%    100.00%
system.ruby.L1Cache_Controller.S_IL0.L0_Ack::total       821812                      
system.ruby.L1Cache_Controller.E_IL0.L0_DataAck |        9713     95.45%     95.45% |         130      1.28%     96.73% |         131      1.29%     98.01% |         202      1.99%    100.00%
system.ruby.L1Cache_Controller.E_IL0.L0_DataAck::total        10176                      
system.ruby.L1Cache_Controller.E_IL0.L0_Invalidate_Own |      226170     98.12%     98.12% |         716      0.31%     98.43% |        1542      0.67%     99.10% |        2071      0.90%    100.00%
system.ruby.L1Cache_Controller.E_IL0.L0_Invalidate_Own::total       230499                      
system.ruby.L1Cache_Controller.E_IL0.L0_Invalidate_Else |          48      4.42%      4.42% |         110     10.12%     14.54% |         125     11.50%     26.03% |         804     73.97%    100.00%
system.ruby.L1Cache_Controller.E_IL0.L0_Invalidate_Else::total         1087                      
system.ruby.L1Cache_Controller.E_IL0.L0_Ack |      216505     97.78%     97.78% |         696      0.31%     98.10% |        1536      0.69%     98.79% |        2673      1.21%    100.00%
system.ruby.L1Cache_Controller.E_IL0.L0_Ack::total       221410                      
system.ruby.L1Cache_Controller.M_IL0.L0_DataAck |       84630     86.50%     86.50% |        4220      4.31%     90.82% |        4538      4.64%     95.45% |        4448      4.55%    100.00%
system.ruby.L1Cache_Controller.M_IL0.L0_DataAck::total        97836                      
system.ruby.L1Cache_Controller.M_IL0.L0_Invalidate_Own |      289490     95.79%     95.79% |        3614      1.20%     96.98% |        3383      1.12%     98.10% |        5739      1.90%    100.00%
system.ruby.L1Cache_Controller.M_IL0.L0_Invalidate_Own::total       302226                      
system.ruby.L1Cache_Controller.M_IL0.L0_Invalidate_Else |        1247     14.09%     14.09% |        2477     28.00%     42.09% |        2841     32.11%     74.20% |        2283     25.80%    100.00%
system.ruby.L1Cache_Controller.M_IL0.L0_Invalidate_Else::total         8848                      
system.ruby.L1Cache_Controller.M_IL0.L0_Ack |      206107     96.66%     96.66% |        1871      0.88%     97.53% |        1686      0.79%     98.32% |        3574      1.68%    100.00%
system.ruby.L1Cache_Controller.M_IL0.L0_Ack::total       213238                      
system.ruby.L2Cache_Controller.L1_GETS        6887276      0.00%      0.00%
system.ruby.L2Cache_Controller.L1_GETX        2428861      0.00%      0.00%
system.ruby.L2Cache_Controller.L1_UPGRADE        15178      0.00%      0.00%
system.ruby.L2Cache_Controller.L1_PUTX        8467824      0.00%      0.00%
system.ruby.L2Cache_Controller.L1_PUTX_old            1      0.00%      0.00%
system.ruby.L2Cache_Controller.L2_Replacement        25271      0.00%      0.00%
system.ruby.L2Cache_Controller.L2_Replacement_clean        14847      0.00%      0.00%
system.ruby.L2Cache_Controller.Mem_Data         57166      0.00%      0.00%
system.ruby.L2Cache_Controller.Mem_Ack          40166      0.00%      0.00%
system.ruby.L2Cache_Controller.WB_Data          13117      0.00%      0.00%
system.ruby.L2Cache_Controller.WB_Data_clean        12128      0.00%      0.00%
system.ruby.L2Cache_Controller.Ack               3778      0.00%      0.00%
system.ruby.L2Cache_Controller.Ack_all           1951      0.00%      0.00%
system.ruby.L2Cache_Controller.Unblock          24658      0.00%      0.00%
system.ruby.L2Cache_Controller.Exclusive_Unblock      8498149      0.00%      0.00%
system.ruby.L2Cache_Controller.MEM_Inv             96      0.00%      0.00%
system.ruby.L2Cache_Controller.NP.L1_GETS        30347      0.00%      0.00%
system.ruby.L2Cache_Controller.NP.L1_GETX        26819      0.00%      0.00%
system.ruby.L2Cache_Controller.SS.L1_GETS       808096      0.00%      0.00%
system.ruby.L2Cache_Controller.SS.L1_GETX         6570      0.00%      0.00%
system.ruby.L2Cache_Controller.SS.L1_UPGRADE        15176      0.00%      0.00%
system.ruby.L2Cache_Controller.SS.L2_Replacement          427      0.00%      0.00%
system.ruby.L2Cache_Controller.SS.L2_Replacement_clean         1503      0.00%      0.00%
system.ruby.L2Cache_Controller.SS.MEM_Inv           13      0.00%      0.00%
system.ruby.L2Cache_Controller.M.L1_GETS      6023780      0.00%      0.00%
system.ruby.L2Cache_Controller.M.L1_GETX      2390392      0.00%      0.00%
system.ruby.L2Cache_Controller.M.L2_Replacement        24592      0.00%      0.00%
system.ruby.L2Cache_Controller.M.L2_Replacement_clean        13010      0.00%      0.00%
system.ruby.L2Cache_Controller.M.MEM_Inv           26      0.00%      0.00%
system.ruby.L2Cache_Controller.MT.L1_GETS        24658      0.00%      0.00%
system.ruby.L2Cache_Controller.MT.L1_GETX         5069      0.00%      0.00%
system.ruby.L2Cache_Controller.MT.L1_PUTX      8467823      0.00%      0.00%
system.ruby.L2Cache_Controller.MT.L1_PUTX_old            1      0.00%      0.00%
system.ruby.L2Cache_Controller.MT.L2_Replacement          252      0.00%      0.00%
system.ruby.L2Cache_Controller.MT.L2_Replacement_clean          334      0.00%      0.00%
system.ruby.L2Cache_Controller.MT.MEM_Inv            9      0.00%      0.00%
system.ruby.L2Cache_Controller.M_I.Mem_Ack        40166      0.00%      0.00%
system.ruby.L2Cache_Controller.M_I.MEM_Inv           26      0.00%      0.00%
system.ruby.L2Cache_Controller.MT_I.WB_Data          223      0.00%      0.00%
system.ruby.L2Cache_Controller.MT_I.WB_Data_clean           34      0.00%      0.00%
system.ruby.L2Cache_Controller.MT_I.Ack_all            4      0.00%      0.00%
system.ruby.L2Cache_Controller.MT_I.MEM_Inv            9      0.00%      0.00%
system.ruby.L2Cache_Controller.MCT_I.WB_Data          154      0.00%      0.00%
system.ruby.L2Cache_Controller.MCT_I.WB_Data_clean          176      0.00%      0.00%
system.ruby.L2Cache_Controller.MCT_I.Ack_all            4      0.00%      0.00%
system.ruby.L2Cache_Controller.I_I.Ack           3222      0.00%      0.00%
system.ruby.L2Cache_Controller.I_I.Ack_all         1503      0.00%      0.00%
system.ruby.L2Cache_Controller.S_I.Ack            556      0.00%      0.00%
system.ruby.L2Cache_Controller.S_I.Ack_all          440      0.00%      0.00%
system.ruby.L2Cache_Controller.S_I.MEM_Inv           13      0.00%      0.00%
system.ruby.L2Cache_Controller.ISS.L1_GETS            4      0.00%      0.00%
system.ruby.L2Cache_Controller.ISS.Mem_Data        30343      0.00%      0.00%
system.ruby.L2Cache_Controller.IS.L1_GETS            2      0.00%      0.00%
system.ruby.L2Cache_Controller.IS.Mem_Data            4      0.00%      0.00%
system.ruby.L2Cache_Controller.IM.Mem_Data        26819      0.00%      0.00%
system.ruby.L2Cache_Controller.SS_MB.L1_GETS           75      0.00%      0.00%
system.ruby.L2Cache_Controller.SS_MB.L1_UPGRADE            2      0.00%      0.00%
system.ruby.L2Cache_Controller.SS_MB.Exclusive_Unblock        21746      0.00%      0.00%
system.ruby.L2Cache_Controller.MT_MB.L1_GETS          308      0.00%      0.00%
system.ruby.L2Cache_Controller.MT_MB.L1_GETX            9      0.00%      0.00%
system.ruby.L2Cache_Controller.MT_MB.L1_PUTX            1      0.00%      0.00%
system.ruby.L2Cache_Controller.MT_MB.Exclusive_Unblock      8476403      0.00%      0.00%
system.ruby.L2Cache_Controller.MT_IIB.L1_GETS            6      0.00%      0.00%
system.ruby.L2Cache_Controller.MT_IIB.L1_GETX            2      0.00%      0.00%
system.ruby.L2Cache_Controller.MT_IIB.WB_Data        12730      0.00%      0.00%
system.ruby.L2Cache_Controller.MT_IIB.WB_Data_clean        11915      0.00%      0.00%
system.ruby.L2Cache_Controller.MT_IIB.Unblock           13      0.00%      0.00%
system.ruby.L2Cache_Controller.MT_IB.WB_Data           10      0.00%      0.00%
system.ruby.L2Cache_Controller.MT_IB.WB_Data_clean            3      0.00%      0.00%
system.ruby.L2Cache_Controller.MT_SB.Unblock        24645      0.00%      0.00%

---------- End Simulation Statistics   ----------
