
---------- Begin Simulation Statistics ----------
sim_seconds                                  0.476534                       # Number of seconds simulated
sim_ticks                                476533527000                       # Number of ticks simulated
final_tick                               52724877990001                       # Number of ticks from beginning of simulation (restored from checkpoints and never reset)
sim_freq                                 1000000000000                       # Frequency of simulated ticks
host_inst_rate                                 161124                       # Simulator instruction rate (inst/s)
host_op_rate                                   290800                       # Simulator op (including micro ops) rate (op/s)
host_tick_rate                              285582733                       # Simulator tick rate (ticks/s)
host_mem_usage                                1806084                       # Number of bytes of host memory used
host_seconds                                  1668.64                       # Real time elapsed on the host
sim_insts                                   268857893                       # Number of instructions simulated
sim_ops                                     485239747                       # Number of ops (including micro ops) simulated
system.voltage_domain.voltage                       1                       # Voltage in Volts
system.clk_domain.clock                          1000                       # Clock period in ticks
system.mem_ctrls.bytes_read::ruby.dir_cntrl0     15833984                       # Number of bytes read from this memory
system.mem_ctrls.bytes_read::total           15833984                       # Number of bytes read from this memory
system.mem_ctrls.bytes_written::ruby.dir_cntrl0     15975168                       # Number of bytes written to this memory
system.mem_ctrls.bytes_written::total        15975168                       # Number of bytes written to this memory
system.mem_ctrls.num_reads::ruby.dir_cntrl0       247406                       # Number of read requests responded to by this memory
system.mem_ctrls.num_reads::total              247406                       # Number of read requests responded to by this memory
system.mem_ctrls.num_writes::ruby.dir_cntrl0       249612                       # Number of write requests responded to by this memory
system.mem_ctrls.num_writes::total             249612                       # Number of write requests responded to by this memory
system.mem_ctrls.bw_read::ruby.dir_cntrl0     33227429                       # Total read bandwidth from this memory (bytes/s)
system.mem_ctrls.bw_read::total              33227429                       # Total read bandwidth from this memory (bytes/s)
system.mem_ctrls.bw_write::ruby.dir_cntrl0     33523702                       # Write bandwidth from this memory (bytes/s)
system.mem_ctrls.bw_write::total             33523702                       # Write bandwidth from this memory (bytes/s)
system.mem_ctrls.bw_total::ruby.dir_cntrl0     66751131                       # Total bandwidth to/from this memory (bytes/s)
system.mem_ctrls.bw_total::total             66751131                       # Total bandwidth to/from this memory (bytes/s)
system.mem_ctrls.readReqs                      247406                       # Number of read requests accepted
system.mem_ctrls.writeReqs                     249612                       # Number of write requests accepted
system.mem_ctrls.readBursts                    247406                       # Number of DRAM read bursts, including those serviced by the write queue
system.mem_ctrls.writeBursts                   249612                       # Number of DRAM write bursts, including those merged in the write queue
system.mem_ctrls.bytesReadDRAM               15324032                       # Total number of bytes read from DRAM
system.mem_ctrls.bytesReadWrQ                  509952                       # Total number of bytes read from write queue
system.mem_ctrls.bytesWritten                15901888                       # Total number of bytes written to DRAM
system.mem_ctrls.bytesReadSys                15833984                       # Total read bytes from the system interface side
system.mem_ctrls.bytesWrittenSys             15975168                       # Total written bytes from the system interface side
system.mem_ctrls.servicedByWrQ                   7968                       # Number of DRAM read bursts serviced by the write queue
system.mem_ctrls.mergedWrBursts                  1158                       # Number of DRAM write bursts merged with an existing one
system.mem_ctrls.neitherReadNorWriteReqs            0                       # Number of requests that are neither read nor write
system.mem_ctrls.perBankRdBursts::0             17245                       # Per bank write bursts
system.mem_ctrls.perBankRdBursts::1             17425                       # Per bank write bursts
system.mem_ctrls.perBankRdBursts::2              9175                       # Per bank write bursts
system.mem_ctrls.perBankRdBursts::3              4638                       # Per bank write bursts
system.mem_ctrls.perBankRdBursts::4              4449                       # Per bank write bursts
system.mem_ctrls.perBankRdBursts::5              4376                       # Per bank write bursts
system.mem_ctrls.perBankRdBursts::6             11502                       # Per bank write bursts
system.mem_ctrls.perBankRdBursts::7             12087                       # Per bank write bursts
system.mem_ctrls.perBankRdBursts::8             22964                       # Per bank write bursts
system.mem_ctrls.perBankRdBursts::9             15044                       # Per bank write bursts
system.mem_ctrls.perBankRdBursts::10            16045                       # Per bank write bursts
system.mem_ctrls.perBankRdBursts::11            16139                       # Per bank write bursts
system.mem_ctrls.perBankRdBursts::12            15637                       # Per bank write bursts
system.mem_ctrls.perBankRdBursts::13            21655                       # Per bank write bursts
system.mem_ctrls.perBankRdBursts::14            23190                       # Per bank write bursts
system.mem_ctrls.perBankRdBursts::15            27867                       # Per bank write bursts
system.mem_ctrls.perBankWrBursts::0             18551                       # Per bank write bursts
system.mem_ctrls.perBankWrBursts::1             18025                       # Per bank write bursts
system.mem_ctrls.perBankWrBursts::2              9451                       # Per bank write bursts
system.mem_ctrls.perBankWrBursts::3              5082                       # Per bank write bursts
system.mem_ctrls.perBankWrBursts::4              4902                       # Per bank write bursts
system.mem_ctrls.perBankWrBursts::5              4597                       # Per bank write bursts
system.mem_ctrls.perBankWrBursts::6             11616                       # Per bank write bursts
system.mem_ctrls.perBankWrBursts::7             12825                       # Per bank write bursts
system.mem_ctrls.perBankWrBursts::8             23385                       # Per bank write bursts
system.mem_ctrls.perBankWrBursts::9             15473                       # Per bank write bursts
system.mem_ctrls.perBankWrBursts::10            16279                       # Per bank write bursts
system.mem_ctrls.perBankWrBursts::11            16366                       # Per bank write bursts
system.mem_ctrls.perBankWrBursts::12            15897                       # Per bank write bursts
system.mem_ctrls.perBankWrBursts::13            22153                       # Per bank write bursts
system.mem_ctrls.perBankWrBursts::14            23684                       # Per bank write bursts
system.mem_ctrls.perBankWrBursts::15            30181                       # Per bank write bursts
system.mem_ctrls.numRdRetry                         0                       # Number of times read queue was full causing retry
system.mem_ctrls.numWrRetry                         0                       # Number of times write queue was full causing retry
system.mem_ctrls.totGap                  476533418000                       # Total gap between requests
system.mem_ctrls.readPktSize::0                     0                       # Read request sizes (log2)
system.mem_ctrls.readPktSize::1                     0                       # Read request sizes (log2)
system.mem_ctrls.readPktSize::2                     0                       # Read request sizes (log2)
system.mem_ctrls.readPktSize::3                     0                       # Read request sizes (log2)
system.mem_ctrls.readPktSize::4                     0                       # Read request sizes (log2)
system.mem_ctrls.readPktSize::5                     0                       # Read request sizes (log2)
system.mem_ctrls.readPktSize::6                247406                       # Read request sizes (log2)
system.mem_ctrls.writePktSize::0                    0                       # Write request sizes (log2)
system.mem_ctrls.writePktSize::1                    0                       # Write request sizes (log2)
system.mem_ctrls.writePktSize::2                    0                       # Write request sizes (log2)
system.mem_ctrls.writePktSize::3                    0                       # Write request sizes (log2)
system.mem_ctrls.writePktSize::4                    0                       # Write request sizes (log2)
system.mem_ctrls.writePktSize::5                    0                       # Write request sizes (log2)
system.mem_ctrls.writePktSize::6               249612                       # Write request sizes (log2)
system.mem_ctrls.rdQLenPdf::0                  237353                       # What read queue length does an incoming req see
system.mem_ctrls.rdQLenPdf::1                    2043                       # What read queue length does an incoming req see
system.mem_ctrls.rdQLenPdf::2                      42                       # What read queue length does an incoming req see
system.mem_ctrls.rdQLenPdf::3                       0                       # What read queue length does an incoming req see
system.mem_ctrls.rdQLenPdf::4                       0                       # What read queue length does an incoming req see
system.mem_ctrls.rdQLenPdf::5                       0                       # What read queue length does an incoming req see
system.mem_ctrls.rdQLenPdf::6                       0                       # What read queue length does an incoming req see
system.mem_ctrls.rdQLenPdf::7                       0                       # What read queue length does an incoming req see
system.mem_ctrls.rdQLenPdf::8                       0                       # What read queue length does an incoming req see
system.mem_ctrls.rdQLenPdf::9                       0                       # What read queue length does an incoming req see
system.mem_ctrls.rdQLenPdf::10                      0                       # What read queue length does an incoming req see
system.mem_ctrls.rdQLenPdf::11                      0                       # What read queue length does an incoming req see
system.mem_ctrls.rdQLenPdf::12                      0                       # What read queue length does an incoming req see
system.mem_ctrls.rdQLenPdf::13                      0                       # What read queue length does an incoming req see
system.mem_ctrls.rdQLenPdf::14                      0                       # What read queue length does an incoming req see
system.mem_ctrls.rdQLenPdf::15                      0                       # What read queue length does an incoming req see
system.mem_ctrls.rdQLenPdf::16                      0                       # What read queue length does an incoming req see
system.mem_ctrls.rdQLenPdf::17                      0                       # What read queue length does an incoming req see
system.mem_ctrls.rdQLenPdf::18                      0                       # What read queue length does an incoming req see
system.mem_ctrls.rdQLenPdf::19                      0                       # What read queue length does an incoming req see
system.mem_ctrls.rdQLenPdf::20                      0                       # What read queue length does an incoming req see
system.mem_ctrls.rdQLenPdf::21                      0                       # What read queue length does an incoming req see
system.mem_ctrls.rdQLenPdf::22                      0                       # What read queue length does an incoming req see
system.mem_ctrls.rdQLenPdf::23                      0                       # What read queue length does an incoming req see
system.mem_ctrls.rdQLenPdf::24                      0                       # What read queue length does an incoming req see
system.mem_ctrls.rdQLenPdf::25                      0                       # What read queue length does an incoming req see
system.mem_ctrls.rdQLenPdf::26                      0                       # What read queue length does an incoming req see
system.mem_ctrls.rdQLenPdf::27                      0                       # What read queue length does an incoming req see
system.mem_ctrls.rdQLenPdf::28                      0                       # What read queue length does an incoming req see
system.mem_ctrls.rdQLenPdf::29                      0                       # What read queue length does an incoming req see
system.mem_ctrls.rdQLenPdf::30                      0                       # What read queue length does an incoming req see
system.mem_ctrls.rdQLenPdf::31                      0                       # What read queue length does an incoming req see
system.mem_ctrls.wrQLenPdf::0                       0                       # What write queue length does an incoming req see
system.mem_ctrls.wrQLenPdf::1                       0                       # What write queue length does an incoming req see
system.mem_ctrls.wrQLenPdf::2                       0                       # What write queue length does an incoming req see
system.mem_ctrls.wrQLenPdf::3                       0                       # What write queue length does an incoming req see
system.mem_ctrls.wrQLenPdf::4                       0                       # What write queue length does an incoming req see
system.mem_ctrls.wrQLenPdf::5                       0                       # What write queue length does an incoming req see
system.mem_ctrls.wrQLenPdf::6                       0                       # What write queue length does an incoming req see
system.mem_ctrls.wrQLenPdf::7                       0                       # What write queue length does an incoming req see
system.mem_ctrls.wrQLenPdf::8                       0                       # What write queue length does an incoming req see
system.mem_ctrls.wrQLenPdf::9                       0                       # What write queue length does an incoming req see
system.mem_ctrls.wrQLenPdf::10                      0                       # What write queue length does an incoming req see
system.mem_ctrls.wrQLenPdf::11                      0                       # What write queue length does an incoming req see
system.mem_ctrls.wrQLenPdf::12                      0                       # What write queue length does an incoming req see
system.mem_ctrls.wrQLenPdf::13                      0                       # What write queue length does an incoming req see
system.mem_ctrls.wrQLenPdf::14                      0                       # What write queue length does an incoming req see
system.mem_ctrls.wrQLenPdf::15                   1328                       # What write queue length does an incoming req see
system.mem_ctrls.wrQLenPdf::16                   1507                       # What write queue length does an incoming req see
system.mem_ctrls.wrQLenPdf::17                  14769                       # What write queue length does an incoming req see
system.mem_ctrls.wrQLenPdf::18                  15306                       # What write queue length does an incoming req see
system.mem_ctrls.wrQLenPdf::19                  15405                       # What write queue length does an incoming req see
system.mem_ctrls.wrQLenPdf::20                  15485                       # What write queue length does an incoming req see
system.mem_ctrls.wrQLenPdf::21                  15576                       # What write queue length does an incoming req see
system.mem_ctrls.wrQLenPdf::22                  15513                       # What write queue length does an incoming req see
system.mem_ctrls.wrQLenPdf::23                  15488                       # What write queue length does an incoming req see
system.mem_ctrls.wrQLenPdf::24                  15439                       # What write queue length does an incoming req see
system.mem_ctrls.wrQLenPdf::25                  15381                       # What write queue length does an incoming req see
system.mem_ctrls.wrQLenPdf::26                  15342                       # What write queue length does an incoming req see
system.mem_ctrls.wrQLenPdf::27                  15316                       # What write queue length does an incoming req see
system.mem_ctrls.wrQLenPdf::28                  15303                       # What write queue length does an incoming req see
system.mem_ctrls.wrQLenPdf::29                  15288                       # What write queue length does an incoming req see
system.mem_ctrls.wrQLenPdf::30                  15279                       # What write queue length does an incoming req see
system.mem_ctrls.wrQLenPdf::31                  15278                       # What write queue length does an incoming req see
system.mem_ctrls.wrQLenPdf::32                  15267                       # What write queue length does an incoming req see
system.mem_ctrls.wrQLenPdf::33                     39                       # What write queue length does an incoming req see
system.mem_ctrls.wrQLenPdf::34                     29                       # What write queue length does an incoming req see
system.mem_ctrls.wrQLenPdf::35                     20                       # What write queue length does an incoming req see
system.mem_ctrls.wrQLenPdf::36                     21                       # What write queue length does an incoming req see
system.mem_ctrls.wrQLenPdf::37                     18                       # What write queue length does an incoming req see
system.mem_ctrls.wrQLenPdf::38                     13                       # What write queue length does an incoming req see
system.mem_ctrls.wrQLenPdf::39                      6                       # What write queue length does an incoming req see
system.mem_ctrls.wrQLenPdf::40                      4                       # What write queue length does an incoming req see
system.mem_ctrls.wrQLenPdf::41                      6                       # What write queue length does an incoming req see
system.mem_ctrls.wrQLenPdf::42                      3                       # What write queue length does an incoming req see
system.mem_ctrls.wrQLenPdf::43                      4                       # What write queue length does an incoming req see
system.mem_ctrls.wrQLenPdf::44                      5                       # What write queue length does an incoming req see
system.mem_ctrls.wrQLenPdf::45                      5                       # What write queue length does an incoming req see
system.mem_ctrls.wrQLenPdf::46                      5                       # What write queue length does an incoming req see
system.mem_ctrls.wrQLenPdf::47                      2                       # What write queue length does an incoming req see
system.mem_ctrls.wrQLenPdf::48                      1                       # What write queue length does an incoming req see
system.mem_ctrls.wrQLenPdf::49                      3                       # What write queue length does an incoming req see
system.mem_ctrls.wrQLenPdf::50                      0                       # What write queue length does an incoming req see
system.mem_ctrls.wrQLenPdf::51                      0                       # What write queue length does an incoming req see
system.mem_ctrls.wrQLenPdf::52                      0                       # What write queue length does an incoming req see
system.mem_ctrls.wrQLenPdf::53                      0                       # What write queue length does an incoming req see
system.mem_ctrls.wrQLenPdf::54                      0                       # What write queue length does an incoming req see
system.mem_ctrls.wrQLenPdf::55                      0                       # What write queue length does an incoming req see
system.mem_ctrls.wrQLenPdf::56                      0                       # What write queue length does an incoming req see
system.mem_ctrls.wrQLenPdf::57                      0                       # What write queue length does an incoming req see
system.mem_ctrls.wrQLenPdf::58                      0                       # What write queue length does an incoming req see
system.mem_ctrls.wrQLenPdf::59                      0                       # What write queue length does an incoming req see
system.mem_ctrls.wrQLenPdf::60                      0                       # What write queue length does an incoming req see
system.mem_ctrls.wrQLenPdf::61                      0                       # What write queue length does an incoming req see
system.mem_ctrls.wrQLenPdf::62                      0                       # What write queue length does an incoming req see
system.mem_ctrls.wrQLenPdf::63                      0                       # What write queue length does an incoming req see
system.mem_ctrls.bytesPerActivate::samples       244940                       # Bytes accessed per row activation
system.mem_ctrls.bytesPerActivate::mean    127.482910                       # Bytes accessed per row activation
system.mem_ctrls.bytesPerActivate::gmean   100.077916                       # Bytes accessed per row activation
system.mem_ctrls.bytesPerActivate::stdev   123.136115                       # Bytes accessed per row activation
system.mem_ctrls.bytesPerActivate::0-127       139519     56.96%     56.96% # Bytes accessed per row activation
system.mem_ctrls.bytesPerActivate::128-255        76378     31.18%     88.14% # Bytes accessed per row activation
system.mem_ctrls.bytesPerActivate::256-383        15323      6.26%     94.40% # Bytes accessed per row activation
system.mem_ctrls.bytesPerActivate::384-511         7170      2.93%     97.33% # Bytes accessed per row activation
system.mem_ctrls.bytesPerActivate::512-639         3300      1.35%     98.67% # Bytes accessed per row activation
system.mem_ctrls.bytesPerActivate::640-767         1434      0.59%     99.26% # Bytes accessed per row activation
system.mem_ctrls.bytesPerActivate::768-895          677      0.28%     99.53% # Bytes accessed per row activation
system.mem_ctrls.bytesPerActivate::896-1023          343      0.14%     99.68% # Bytes accessed per row activation
system.mem_ctrls.bytesPerActivate::1024-1151          796      0.32%    100.00% # Bytes accessed per row activation
system.mem_ctrls.bytesPerActivate::total       244940                       # Bytes accessed per row activation
system.mem_ctrls.rdPerTurnAround::samples        15266                       # Reads before turning the bus around for writes
system.mem_ctrls.rdPerTurnAround::mean      15.685248                       # Reads before turning the bus around for writes
system.mem_ctrls.rdPerTurnAround::stdev      4.659002                       # Reads before turning the bus around for writes
system.mem_ctrls.rdPerTurnAround::0-3             308      2.02%      2.02% # Reads before turning the bus around for writes
system.mem_ctrls.rdPerTurnAround::4-7             816      5.35%      7.36% # Reads before turning the bus around for writes
system.mem_ctrls.rdPerTurnAround::8-11            657      4.30%     11.67% # Reads before turning the bus around for writes
system.mem_ctrls.rdPerTurnAround::12-15          2445     16.02%     27.68% # Reads before turning the bus around for writes
system.mem_ctrls.rdPerTurnAround::16-19          9712     63.62%     91.30% # Reads before turning the bus around for writes
system.mem_ctrls.rdPerTurnAround::20-23          1022      6.69%     98.00% # Reads before turning the bus around for writes
system.mem_ctrls.rdPerTurnAround::24-27           127      0.83%     98.83% # Reads before turning the bus around for writes
system.mem_ctrls.rdPerTurnAround::28-31            59      0.39%     99.21% # Reads before turning the bus around for writes
system.mem_ctrls.rdPerTurnAround::32-35            33      0.22%     99.43% # Reads before turning the bus around for writes
system.mem_ctrls.rdPerTurnAround::36-39            34      0.22%     99.65% # Reads before turning the bus around for writes
system.mem_ctrls.rdPerTurnAround::40-43            25      0.16%     99.82% # Reads before turning the bus around for writes
system.mem_ctrls.rdPerTurnAround::44-47            13      0.09%     99.90% # Reads before turning the bus around for writes
system.mem_ctrls.rdPerTurnAround::48-51             7      0.05%     99.95% # Reads before turning the bus around for writes
system.mem_ctrls.rdPerTurnAround::52-55             3      0.02%     99.97% # Reads before turning the bus around for writes
system.mem_ctrls.rdPerTurnAround::56-59             1      0.01%     99.97% # Reads before turning the bus around for writes
system.mem_ctrls.rdPerTurnAround::64-67             1      0.01%     99.98% # Reads before turning the bus around for writes
system.mem_ctrls.rdPerTurnAround::68-71             1      0.01%     99.99% # Reads before turning the bus around for writes
system.mem_ctrls.rdPerTurnAround::72-75             1      0.01%     99.99% # Reads before turning the bus around for writes
system.mem_ctrls.rdPerTurnAround::96-99             1      0.01%    100.00% # Reads before turning the bus around for writes
system.mem_ctrls.rdPerTurnAround::total         15266                       # Reads before turning the bus around for writes
system.mem_ctrls.wrPerTurnAround::samples        15266                       # Writes before turning the bus around for reads
system.mem_ctrls.wrPerTurnAround::mean      16.275842                       # Writes before turning the bus around for reads
system.mem_ctrls.wrPerTurnAround::gmean     16.250614                       # Writes before turning the bus around for reads
system.mem_ctrls.wrPerTurnAround::stdev      1.010052                       # Writes before turning the bus around for reads
system.mem_ctrls.wrPerTurnAround::16            13802     90.41%     90.41% # Writes before turning the bus around for reads
system.mem_ctrls.wrPerTurnAround::17               52      0.34%     90.75% # Writes before turning the bus around for reads
system.mem_ctrls.wrPerTurnAround::18              665      4.36%     95.11% # Writes before turning the bus around for reads
system.mem_ctrls.wrPerTurnAround::19              465      3.05%     98.15% # Writes before turning the bus around for reads
system.mem_ctrls.wrPerTurnAround::20              208      1.36%     99.52% # Writes before turning the bus around for reads
system.mem_ctrls.wrPerTurnAround::21               17      0.11%     99.63% # Writes before turning the bus around for reads
system.mem_ctrls.wrPerTurnAround::22               13      0.09%     99.71% # Writes before turning the bus around for reads
system.mem_ctrls.wrPerTurnAround::23                7      0.05%     99.76% # Writes before turning the bus around for reads
system.mem_ctrls.wrPerTurnAround::24               18      0.12%     99.88% # Writes before turning the bus around for reads
system.mem_ctrls.wrPerTurnAround::25                6      0.04%     99.91% # Writes before turning the bus around for reads
system.mem_ctrls.wrPerTurnAround::26                3      0.02%     99.93% # Writes before turning the bus around for reads
system.mem_ctrls.wrPerTurnAround::27                2      0.01%     99.95% # Writes before turning the bus around for reads
system.mem_ctrls.wrPerTurnAround::28                4      0.03%     99.97% # Writes before turning the bus around for reads
system.mem_ctrls.wrPerTurnAround::30                1      0.01%     99.98% # Writes before turning the bus around for reads
system.mem_ctrls.wrPerTurnAround::31                1      0.01%     99.99% # Writes before turning the bus around for reads
system.mem_ctrls.wrPerTurnAround::40                1      0.01%     99.99% # Writes before turning the bus around for reads
system.mem_ctrls.wrPerTurnAround::55                1      0.01%    100.00% # Writes before turning the bus around for reads
system.mem_ctrls.wrPerTurnAround::total         15266                       # Writes before turning the bus around for reads
system.mem_ctrls.totQLat                   4549028721                       # Total ticks spent queuing
system.mem_ctrls.totMemAccLat              9038491221                       # Total ticks spent from burst creation until serviced by the DRAM
system.mem_ctrls.totBusLat                 1197190000                       # Total ticks spent in databus transfers
system.mem_ctrls.avgQLat                     18998.78                       # Average queueing delay per DRAM burst
system.mem_ctrls.avgBusLat                    5000.00                       # Average bus latency per DRAM burst
system.mem_ctrls.avgMemAccLat                37748.78                       # Average memory access latency per DRAM burst
system.mem_ctrls.avgRdBW                        32.16                       # Average DRAM read bandwidth in MiByte/s
system.mem_ctrls.avgWrBW                        33.37                       # Average achieved write bandwidth in MiByte/s
system.mem_ctrls.avgRdBWSys                     33.23                       # Average system read bandwidth in MiByte/s
system.mem_ctrls.avgWrBWSys                     33.52                       # Average system write bandwidth in MiByte/s
system.mem_ctrls.peakBW                      12800.00                       # Theoretical peak bandwidth in MiByte/s
system.mem_ctrls.busUtil                         0.51                       # Data bus utilization in percentage
system.mem_ctrls.busUtilRead                     0.25                       # Data bus utilization in percentage for reads
system.mem_ctrls.busUtilWrite                    0.26                       # Data bus utilization in percentage for writes
system.mem_ctrls.avgRdQLen                       1.00                       # Average read queue length when enqueuing
system.mem_ctrls.avgWrQLen                      25.47                       # Average write queue length when enqueuing
system.mem_ctrls.readRowHits                    77580                       # Number of row buffer hits during reads
system.mem_ctrls.writeRowHits                  165383                       # Number of row buffer hits during writes
system.mem_ctrls.readRowHitRate                 32.40                       # Row buffer hit rate for reads
system.mem_ctrls.writeRowHitRate                66.56                       # Row buffer hit rate for writes
system.mem_ctrls.avgGap                     958785.03                       # Average gap between requests
system.mem_ctrls.pageHitRate                    49.80                       # Row buffer hit rate, read and write combined
system.mem_ctrls_0.actEnergy                768353040                       # Energy for activate commands per rank (pJ)
system.mem_ctrls_0.preEnergy                419240250                       # Energy for precharge commands per rank (pJ)
system.mem_ctrls_0.readEnergy               794874600                       # Energy for read commands per rank (pJ)
system.mem_ctrls_0.writeEnergy              682253280                       # Energy for write commands per rank (pJ)
system.mem_ctrls_0.refreshEnergy          31427482320                       # Energy for refresh commands per rank (pJ)
system.mem_ctrls_0.actBackEnergy          77046187500                       # Energy for active background per rank (pJ)
system.mem_ctrls_0.preBackEnergy         221115915750                       # Energy for precharge background per rank (pJ)
system.mem_ctrls_0.totalEnergy           332254306740                       # Total energy per rank (pJ)
system.mem_ctrls_0.averagePower            690.517434                       # Core power per rank (mW)
system.mem_ctrls_0.memoryStateTime::IDLE 367024929000                       # Time in different power states
system.mem_ctrls_0.memoryStateTime::REF   15912520000                       # Time in different power states
system.mem_ctrls_0.memoryStateTime::PRE_PDN            0                       # Time in different power states
system.mem_ctrls_0.memoryStateTime::ACT   93594946000                       # Time in different power states
system.mem_ctrls_0.memoryStateTime::ACT_PDN            0                       # Time in different power states
system.mem_ctrls_1.actEnergy               1330076160                       # Energy for activate commands per rank (pJ)
system.mem_ctrls_1.preEnergy                725736000                       # Energy for precharge commands per rank (pJ)
system.mem_ctrls_1.readEnergy              1363174800                       # Energy for read commands per rank (pJ)
system.mem_ctrls_1.writeEnergy             1158384240                       # Energy for write commands per rank (pJ)
system.mem_ctrls_1.refreshEnergy          31427482320                       # Energy for refresh commands per rank (pJ)
system.mem_ctrls_1.actBackEnergy         134738575335                       # Energy for active background per rank (pJ)
system.mem_ctrls_1.preBackEnergy         170508562500                       # Energy for precharge background per rank (pJ)
system.mem_ctrls_1.totalEnergy           341251991355                       # Total energy per rank (pJ)
system.mem_ctrls_1.averagePower            709.217130                       # Core power per rank (mW)
system.mem_ctrls_1.memoryStateTime::IDLE 282475950501                       # Time in different power states
system.mem_ctrls_1.memoryStateTime::REF   15912520000                       # Time in different power states
system.mem_ctrls_1.memoryStateTime::PRE_PDN            0                       # Time in different power states
system.mem_ctrls_1.memoryStateTime::ACT  178145602499                       # Time in different power states
system.mem_ctrls_1.memoryStateTime::ACT_PDN            0                       # Time in different power states
system.cpu_voltage_domain.voltage                   1                       # Voltage in Volts
system.cpu_clk_domain.clock                       500                       # Clock period in ticks
system.cpu0.apic_clk_domain.clock                8000                       # Clock period in ticks
system.cpu0.numCycles                       956109454                       # number of cpu cycles simulated
system.cpu0.numWorkItemsStarted                     0                       # number of work items this cpu started
system.cpu0.numWorkItemsCompleted                   0                       # number of work items this cpu completed
system.cpu0.kern.inst.arm                           0                       # number of arm instructions executed
system.cpu0.kern.inst.quiesce                       0                       # number of quiesce instructions executed
system.cpu0.committedInsts                     981961                       # Number of instructions committed
system.cpu0.committedOps                      1943490                       # Number of ops (including micro ops) committed
system.cpu0.num_int_alu_accesses              1909974                       # Number of integer alu accesses
system.cpu0.num_fp_alu_accesses                   370                       # Number of float alu accesses
system.cpu0.num_func_calls                      46932                       # number of times a function call or return occured
system.cpu0.num_conditional_control_insts       148086                       # number of instructions that are conditional controls
system.cpu0.num_int_insts                     1909974                       # number of integer instructions
system.cpu0.num_fp_insts                          370                       # number of float instructions
system.cpu0.num_int_register_reads            3910097                       # number of times the integer registers were read
system.cpu0.num_int_register_writes           1550328                       # number of times the integer registers were written
system.cpu0.num_fp_register_reads                 594                       # number of times the floating registers were read
system.cpu0.num_fp_register_writes                261                       # number of times the floating registers were written
system.cpu0.num_cc_register_reads             1089695                       # number of times the CC registers were read
system.cpu0.num_cc_register_writes             631289                       # number of times the CC registers were written
system.cpu0.num_mem_refs                       458270                       # number of memory refs
system.cpu0.num_load_insts                     275502                       # Number of load instructions
system.cpu0.num_store_insts                    182768                       # Number of store instructions
system.cpu0.num_idle_cycles              948308117.656510                       # Number of idle cycles
system.cpu0.num_busy_cycles              7801336.343490                       # Number of busy cycles
system.cpu0.not_idle_fraction                0.008159                       # Percentage of non-idle cycles
system.cpu0.idle_fraction                    0.991841                       # Percentage of idle cycles
system.cpu0.Branches                           209739                       # Number of branches fetched
system.cpu0.op_class::No_OpClass                22198      1.14%      1.14% # Class of executed instruction
system.cpu0.op_class::IntAlu                  1453879     74.80%     75.95% # Class of executed instruction
system.cpu0.op_class::IntMult                    2737      0.14%     76.09% # Class of executed instruction
system.cpu0.op_class::IntDiv                     6248      0.32%     76.41% # Class of executed instruction
system.cpu0.op_class::FloatAdd                    244      0.01%     76.42% # Class of executed instruction
system.cpu0.op_class::FloatCmp                      0      0.00%     76.42% # Class of executed instruction
system.cpu0.op_class::FloatCvt                      0      0.00%     76.42% # Class of executed instruction
system.cpu0.op_class::FloatMult                     0      0.00%     76.42% # Class of executed instruction
system.cpu0.op_class::FloatDiv                      0      0.00%     76.42% # Class of executed instruction
system.cpu0.op_class::FloatSqrt                     0      0.00%     76.42% # Class of executed instruction
system.cpu0.op_class::SimdAdd                       0      0.00%     76.42% # Class of executed instruction
system.cpu0.op_class::SimdAddAcc                    0      0.00%     76.42% # Class of executed instruction
system.cpu0.op_class::SimdAlu                       0      0.00%     76.42% # Class of executed instruction
system.cpu0.op_class::SimdCmp                       0      0.00%     76.42% # Class of executed instruction
system.cpu0.op_class::SimdCvt                       0      0.00%     76.42% # Class of executed instruction
system.cpu0.op_class::SimdMisc                      0      0.00%     76.42% # Class of executed instruction
system.cpu0.op_class::SimdMult                      0      0.00%     76.42% # Class of executed instruction
system.cpu0.op_class::SimdMultAcc                   0      0.00%     76.42% # Class of executed instruction
system.cpu0.op_class::SimdShift                     0      0.00%     76.42% # Class of executed instruction
system.cpu0.op_class::SimdShiftAcc                  0      0.00%     76.42% # Class of executed instruction
system.cpu0.op_class::SimdSqrt                      0      0.00%     76.42% # Class of executed instruction
system.cpu0.op_class::SimdFloatAdd                  0      0.00%     76.42% # Class of executed instruction
system.cpu0.op_class::SimdFloatAlu                  0      0.00%     76.42% # Class of executed instruction
system.cpu0.op_class::SimdFloatCmp                  0      0.00%     76.42% # Class of executed instruction
system.cpu0.op_class::SimdFloatCvt                  0      0.00%     76.42% # Class of executed instruction
system.cpu0.op_class::SimdFloatDiv                  0      0.00%     76.42% # Class of executed instruction
system.cpu0.op_class::SimdFloatMisc                 0      0.00%     76.42% # Class of executed instruction
system.cpu0.op_class::SimdFloatMult                 0      0.00%     76.42% # Class of executed instruction
system.cpu0.op_class::SimdFloatMultAcc              0      0.00%     76.42% # Class of executed instruction
system.cpu0.op_class::SimdFloatSqrt                 0      0.00%     76.42% # Class of executed instruction
system.cpu0.op_class::MemRead                  275502     14.18%     90.60% # Class of executed instruction
system.cpu0.op_class::MemWrite                 182768      9.40%    100.00% # Class of executed instruction
system.cpu0.op_class::IprAccess                     0      0.00%    100.00% # Class of executed instruction
system.cpu0.op_class::InstPrefetch                  0      0.00%    100.00% # Class of executed instruction
system.cpu0.op_class::total                   1943576                       # Class of executed instruction
system.cpu1.apic_clk_domain.clock                8000                       # Clock period in ticks
system.cpu1.numCycles                       948384311                       # number of cpu cycles simulated
system.cpu1.numWorkItemsStarted                     0                       # number of work items this cpu started
system.cpu1.numWorkItemsCompleted                   0                       # number of work items this cpu completed
system.cpu1.kern.inst.arm                           0                       # number of arm instructions executed
system.cpu1.kern.inst.quiesce                       0                       # number of quiesce instructions executed
system.cpu1.committedInsts                     400567                       # Number of instructions committed
system.cpu1.committedOps                       835880                       # Number of ops (including micro ops) committed
system.cpu1.num_int_alu_accesses               820441                       # Number of integer alu accesses
system.cpu1.num_fp_alu_accesses                   158                       # Number of float alu accesses
system.cpu1.num_func_calls                      21938                       # number of times a function call or return occured
system.cpu1.num_conditional_control_insts        63209                       # number of instructions that are conditional controls
system.cpu1.num_int_insts                      820441                       # number of integer instructions
system.cpu1.num_fp_insts                          158                       # number of float instructions
system.cpu1.num_int_register_reads            1640906                       # number of times the integer registers were read
system.cpu1.num_int_register_writes            673140                       # number of times the integer registers were written
system.cpu1.num_fp_register_reads                 196                       # number of times the floating registers were read
system.cpu1.num_fp_register_writes                137                       # number of times the floating registers were written
system.cpu1.num_cc_register_reads              480304                       # number of times the CC registers were read
system.cpu1.num_cc_register_writes             260232                       # number of times the CC registers were written
system.cpu1.num_mem_refs                       191885                       # number of memory refs
system.cpu1.num_load_insts                     118600                       # Number of load instructions
system.cpu1.num_store_insts                     73285                       # Number of store instructions
system.cpu1.num_idle_cycles              945040700.417825                       # Number of idle cycles
system.cpu1.num_busy_cycles              3343610.582175                       # Number of busy cycles
system.cpu1.not_idle_fraction                0.003526                       # Percentage of non-idle cycles
system.cpu1.idle_fraction                    0.996474                       # Percentage of idle cycles
system.cpu1.Branches                            92328                       # Number of branches fetched
system.cpu1.op_class::No_OpClass                11413      1.37%      1.37% # Class of executed instruction
system.cpu1.op_class::IntAlu                   627020     75.01%     76.38% # Class of executed instruction
system.cpu1.op_class::IntMult                    1726      0.21%     76.58% # Class of executed instruction
system.cpu1.op_class::IntDiv                     3755      0.45%     77.03% # Class of executed instruction
system.cpu1.op_class::FloatAdd                     86      0.01%     77.04% # Class of executed instruction
system.cpu1.op_class::FloatCmp                      0      0.00%     77.04% # Class of executed instruction
system.cpu1.op_class::FloatCvt                      0      0.00%     77.04% # Class of executed instruction
system.cpu1.op_class::FloatMult                     0      0.00%     77.04% # Class of executed instruction
system.cpu1.op_class::FloatDiv                      0      0.00%     77.04% # Class of executed instruction
system.cpu1.op_class::FloatSqrt                     0      0.00%     77.04% # Class of executed instruction
system.cpu1.op_class::SimdAdd                       0      0.00%     77.04% # Class of executed instruction
system.cpu1.op_class::SimdAddAcc                    0      0.00%     77.04% # Class of executed instruction
system.cpu1.op_class::SimdAlu                       0      0.00%     77.04% # Class of executed instruction
system.cpu1.op_class::SimdCmp                       0      0.00%     77.04% # Class of executed instruction
system.cpu1.op_class::SimdCvt                       0      0.00%     77.04% # Class of executed instruction
system.cpu1.op_class::SimdMisc                      0      0.00%     77.04% # Class of executed instruction
system.cpu1.op_class::SimdMult                      0      0.00%     77.04% # Class of executed instruction
system.cpu1.op_class::SimdMultAcc                   0      0.00%     77.04% # Class of executed instruction
system.cpu1.op_class::SimdShift                     0      0.00%     77.04% # Class of executed instruction
system.cpu1.op_class::SimdShiftAcc                  0      0.00%     77.04% # Class of executed instruction
system.cpu1.op_class::SimdSqrt                      0      0.00%     77.04% # Class of executed instruction
system.cpu1.op_class::SimdFloatAdd                  0      0.00%     77.04% # Class of executed instruction
system.cpu1.op_class::SimdFloatAlu                  0      0.00%     77.04% # Class of executed instruction
system.cpu1.op_class::SimdFloatCmp                  0      0.00%     77.04% # Class of executed instruction
system.cpu1.op_class::SimdFloatCvt                  0      0.00%     77.04% # Class of executed instruction
system.cpu1.op_class::SimdFloatDiv                  0      0.00%     77.04% # Class of executed instruction
system.cpu1.op_class::SimdFloatMisc                 0      0.00%     77.04% # Class of executed instruction
system.cpu1.op_class::SimdFloatMult                 0      0.00%     77.04% # Class of executed instruction
system.cpu1.op_class::SimdFloatMultAcc              0      0.00%     77.04% # Class of executed instruction
system.cpu1.op_class::SimdFloatSqrt                 0      0.00%     77.04% # Class of executed instruction
system.cpu1.op_class::MemRead                  118600     14.19%     91.23% # Class of executed instruction
system.cpu1.op_class::MemWrite                  73285      8.77%    100.00% # Class of executed instruction
system.cpu1.op_class::IprAccess                     0      0.00%    100.00% # Class of executed instruction
system.cpu1.op_class::InstPrefetch                  0      0.00%    100.00% # Class of executed instruction
system.cpu1.op_class::total                    835885                       # Class of executed instruction
system.cpu2.apic_clk_domain.clock                8000                       # Clock period in ticks
system.cpu2.numCycles                       949988572                       # number of cpu cycles simulated
system.cpu2.numWorkItemsStarted                     0                       # number of work items this cpu started
system.cpu2.numWorkItemsCompleted                   0                       # number of work items this cpu completed
system.cpu2.kern.inst.arm                           0                       # number of arm instructions executed
system.cpu2.kern.inst.quiesce                       0                       # number of quiesce instructions executed
system.cpu2.committedInsts                  265838544                       # Number of instructions committed
system.cpu2.committedOps                    479352509                       # Number of ops (including micro ops) committed
system.cpu2.num_int_alu_accesses            269723545                       # Number of integer alu accesses
system.cpu2.num_fp_alu_accesses             270604333                       # Number of float alu accesses
system.cpu2.num_func_calls                    9864998                       # number of times a function call or return occured
system.cpu2.num_conditional_control_insts     15016691                       # number of instructions that are conditional controls
system.cpu2.num_int_insts                   269723545                       # number of integer instructions
system.cpu2.num_fp_insts                    270604333                       # number of float instructions
system.cpu2.num_int_register_reads          512838403                       # number of times the integer registers were read
system.cpu2.num_int_register_writes         176202250                       # number of times the integer registers were written
system.cpu2.num_fp_register_reads           446701796                       # number of times the floating registers were read
system.cpu2.num_fp_register_writes          249458581                       # number of times the floating registers were written
system.cpu2.num_cc_register_reads           107012934                       # number of times the CC registers were read
system.cpu2.num_cc_register_writes           83035417                       # number of times the CC registers were written
system.cpu2.num_mem_refs                     84049094                       # number of memory refs
system.cpu2.num_load_insts                   62890019                       # Number of load instructions
system.cpu2.num_store_insts                  21159075                       # Number of store instructions
system.cpu2.num_idle_cycles              5281604.721085                       # Number of idle cycles
system.cpu2.num_busy_cycles              944706967.278915                       # Number of busy cycles
system.cpu2.not_idle_fraction                0.994440                       # Percentage of non-idle cycles
system.cpu2.idle_fraction                    0.005560                       # Percentage of idle cycles
system.cpu2.Branches                         27067491                       # Number of branches fetched
system.cpu2.op_class::No_OpClass                10662      0.00%      0.00% # Class of executed instruction
system.cpu2.op_class::IntAlu                244919387     51.09%     51.10% # Class of executed instruction
system.cpu2.op_class::IntMult                    2248      0.00%     51.10% # Class of executed instruction
system.cpu2.op_class::IntDiv                     1958      0.00%     51.10% # Class of executed instruction
system.cpu2.op_class::FloatAdd              150369260     31.37%     82.47% # Class of executed instruction
system.cpu2.op_class::FloatCmp                      0      0.00%     82.47% # Class of executed instruction
system.cpu2.op_class::FloatCvt                      0      0.00%     82.47% # Class of executed instruction
system.cpu2.op_class::FloatMult                     0      0.00%     82.47% # Class of executed instruction
system.cpu2.op_class::FloatDiv                      0      0.00%     82.47% # Class of executed instruction
system.cpu2.op_class::FloatSqrt                     0      0.00%     82.47% # Class of executed instruction
system.cpu2.op_class::SimdAdd                       0      0.00%     82.47% # Class of executed instruction
system.cpu2.op_class::SimdAddAcc                    0      0.00%     82.47% # Class of executed instruction
system.cpu2.op_class::SimdAlu                       0      0.00%     82.47% # Class of executed instruction
system.cpu2.op_class::SimdCmp                       0      0.00%     82.47% # Class of executed instruction
system.cpu2.op_class::SimdCvt                       0      0.00%     82.47% # Class of executed instruction
system.cpu2.op_class::SimdMisc                      0      0.00%     82.47% # Class of executed instruction
system.cpu2.op_class::SimdMult                      0      0.00%     82.47% # Class of executed instruction
system.cpu2.op_class::SimdMultAcc                   0      0.00%     82.47% # Class of executed instruction
system.cpu2.op_class::SimdShift                     0      0.00%     82.47% # Class of executed instruction
system.cpu2.op_class::SimdShiftAcc                  0      0.00%     82.47% # Class of executed instruction
system.cpu2.op_class::SimdSqrt                      0      0.00%     82.47% # Class of executed instruction
system.cpu2.op_class::SimdFloatAdd                  0      0.00%     82.47% # Class of executed instruction
system.cpu2.op_class::SimdFloatAlu                  0      0.00%     82.47% # Class of executed instruction
system.cpu2.op_class::SimdFloatCmp                  0      0.00%     82.47% # Class of executed instruction
system.cpu2.op_class::SimdFloatCvt                  0      0.00%     82.47% # Class of executed instruction
system.cpu2.op_class::SimdFloatDiv                  0      0.00%     82.47% # Class of executed instruction
system.cpu2.op_class::SimdFloatMisc                 0      0.00%     82.47% # Class of executed instruction
system.cpu2.op_class::SimdFloatMult                 0      0.00%     82.47% # Class of executed instruction
system.cpu2.op_class::SimdFloatMultAcc              0      0.00%     82.47% # Class of executed instruction
system.cpu2.op_class::SimdFloatSqrt                 0      0.00%     82.47% # Class of executed instruction
system.cpu2.op_class::MemRead                62890019     13.12%     95.59% # Class of executed instruction
system.cpu2.op_class::MemWrite               21159075      4.41%    100.00% # Class of executed instruction
system.cpu2.op_class::IprAccess                     0      0.00%    100.00% # Class of executed instruction
system.cpu2.op_class::InstPrefetch                  0      0.00%    100.00% # Class of executed instruction
system.cpu2.op_class::total                 479352609                       # Class of executed instruction
system.cpu3.apic_clk_domain.clock                8000                       # Clock period in ticks
system.cpu3.numCycles                       953520021                       # number of cpu cycles simulated
system.cpu3.numWorkItemsStarted                     0                       # number of work items this cpu started
system.cpu3.numWorkItemsCompleted                   0                       # number of work items this cpu completed
system.cpu3.kern.inst.arm                           0                       # number of arm instructions executed
system.cpu3.kern.inst.quiesce                       0                       # number of quiesce instructions executed
system.cpu3.committedInsts                     331957                       # Number of instructions committed
system.cpu3.committedOps                       705224                       # Number of ops (including micro ops) committed
system.cpu3.num_int_alu_accesses               691433                       # Number of integer alu accesses
system.cpu3.num_fp_alu_accesses                    39                       # Number of float alu accesses
system.cpu3.num_func_calls                      20072                       # number of times a function call or return occured
system.cpu3.num_conditional_control_insts        46589                       # number of instructions that are conditional controls
system.cpu3.num_int_insts                      691433                       # number of integer instructions
system.cpu3.num_fp_insts                           39                       # number of float instructions
system.cpu3.num_int_register_reads            1411309                       # number of times the integer registers were read
system.cpu3.num_int_register_writes            567265                       # number of times the integer registers were written
system.cpu3.num_fp_register_reads                  63                       # number of times the floating registers were read
system.cpu3.num_fp_register_writes                 31                       # number of times the floating registers were written
system.cpu3.num_cc_register_reads              368952                       # number of times the CC registers were read
system.cpu3.num_cc_register_writes             207104                       # number of times the CC registers were written
system.cpu3.num_mem_refs                       174260                       # number of memory refs
system.cpu3.num_load_insts                     107000                       # Number of load instructions
system.cpu3.num_store_insts                     67260                       # Number of store instructions
system.cpu3.num_idle_cycles              950614986.971774                       # Number of idle cycles
system.cpu3.num_busy_cycles              2905034.028226                       # Number of busy cycles
system.cpu3.not_idle_fraction                0.003047                       # Percentage of non-idle cycles
system.cpu3.idle_fraction                    0.996953                       # Percentage of idle cycles
system.cpu3.Branches                            73120                       # Number of branches fetched
system.cpu3.op_class::No_OpClass                10391      1.47%      1.47% # Class of executed instruction
system.cpu3.op_class::IntAlu                   515972     73.16%     74.64% # Class of executed instruction
system.cpu3.op_class::IntMult                    1430      0.20%     74.84% # Class of executed instruction
system.cpu3.op_class::IntDiv                     3163      0.45%     75.29% # Class of executed instruction
system.cpu3.op_class::FloatAdd                     30      0.00%     75.29% # Class of executed instruction
system.cpu3.op_class::FloatCmp                      0      0.00%     75.29% # Class of executed instruction
system.cpu3.op_class::FloatCvt                      0      0.00%     75.29% # Class of executed instruction
system.cpu3.op_class::FloatMult                     0      0.00%     75.29% # Class of executed instruction
system.cpu3.op_class::FloatDiv                      0      0.00%     75.29% # Class of executed instruction
system.cpu3.op_class::FloatSqrt                     0      0.00%     75.29% # Class of executed instruction
system.cpu3.op_class::SimdAdd                       0      0.00%     75.29% # Class of executed instruction
system.cpu3.op_class::SimdAddAcc                    0      0.00%     75.29% # Class of executed instruction
system.cpu3.op_class::SimdAlu                       0      0.00%     75.29% # Class of executed instruction
system.cpu3.op_class::SimdCmp                       0      0.00%     75.29% # Class of executed instruction
system.cpu3.op_class::SimdCvt                       0      0.00%     75.29% # Class of executed instruction
system.cpu3.op_class::SimdMisc                      0      0.00%     75.29% # Class of executed instruction
system.cpu3.op_class::SimdMult                      0      0.00%     75.29% # Class of executed instruction
system.cpu3.op_class::SimdMultAcc                   0      0.00%     75.29% # Class of executed instruction
system.cpu3.op_class::SimdShift                     0      0.00%     75.29% # Class of executed instruction
system.cpu3.op_class::SimdShiftAcc                  0      0.00%     75.29% # Class of executed instruction
system.cpu3.op_class::SimdSqrt                      0      0.00%     75.29% # Class of executed instruction
system.cpu3.op_class::SimdFloatAdd                  0      0.00%     75.29% # Class of executed instruction
system.cpu3.op_class::SimdFloatAlu                  0      0.00%     75.29% # Class of executed instruction
system.cpu3.op_class::SimdFloatCmp                  0      0.00%     75.29% # Class of executed instruction
system.cpu3.op_class::SimdFloatCvt                  0      0.00%     75.29% # Class of executed instruction
system.cpu3.op_class::SimdFloatDiv                  0      0.00%     75.29% # Class of executed instruction
system.cpu3.op_class::SimdFloatMisc                 0      0.00%     75.29% # Class of executed instruction
system.cpu3.op_class::SimdFloatMult                 0      0.00%     75.29% # Class of executed instruction
system.cpu3.op_class::SimdFloatMultAcc              0      0.00%     75.29% # Class of executed instruction
system.cpu3.op_class::SimdFloatSqrt                 0      0.00%     75.29% # Class of executed instruction
system.cpu3.op_class::MemRead                  107000     15.17%     90.46% # Class of executed instruction
system.cpu3.op_class::MemWrite                  67260      9.54%    100.00% # Class of executed instruction
system.cpu3.op_class::IprAccess                     0      0.00%    100.00% # Class of executed instruction
system.cpu3.op_class::InstPrefetch                  0      0.00%    100.00% # Class of executed instruction
system.cpu3.op_class::total                    705246                       # Class of executed instruction
system.iobus.trans_dist::ReadReq                  100                       # Transaction distribution
system.iobus.trans_dist::ReadResp                 100                       # Transaction distribution
system.iobus.trans_dist::WriteReq                 578                       # Transaction distribution
system.iobus.trans_dist::WriteResp                578                       # Transaction distribution
system.iobus.trans_dist::MessageReq                19                       # Transaction distribution
system.iobus.trans_dist::MessageResp               19                       # Transaction distribution
system.iobus.pkt_count_system.pc.south_bridge.io_apic.int_master::system.ruby.l1_cntrl0.sequencer.pio-slave-port            2                       # Packet count per connected master and slave (bytes)
system.iobus.pkt_count_system.pc.south_bridge.io_apic.int_master::system.ruby.l1_cntrl1.sequencer.pio-slave-port            4                       # Packet count per connected master and slave (bytes)
system.iobus.pkt_count_system.pc.south_bridge.io_apic.int_master::system.ruby.l1_cntrl2.sequencer.pio-slave-port            4                       # Packet count per connected master and slave (bytes)
system.iobus.pkt_count_system.pc.south_bridge.io_apic.int_master::system.ruby.l1_cntrl3.sequencer.pio-slave-port            4                       # Packet count per connected master and slave (bytes)
system.iobus.pkt_count_system.pc.south_bridge.io_apic.int_master::total           14                       # Packet count per connected master and slave (bytes)
system.iobus.pkt_count_system.ruby.l1_cntrl0.sequencer.mem-master-port::system.pc.south_bridge.io_apic.pio            8                       # Packet count per connected master and slave (bytes)
system.iobus.pkt_count_system.ruby.l1_cntrl0.sequencer.mem-master-port::system.pc.com_1.pio            2                       # Packet count per connected master and slave (bytes)
system.iobus.pkt_count_system.ruby.l1_cntrl0.sequencer.mem-master-port::system.ruby.l1_cntrl0.sequencer.pio-slave-port          272                       # Packet count per connected master and slave (bytes)
system.iobus.pkt_count_system.ruby.l1_cntrl0.sequencer.mem-master-port::system.ruby.l1_cntrl1.sequencer.pio-slave-port            4                       # Packet count per connected master and slave (bytes)
system.iobus.pkt_count_system.ruby.l1_cntrl0.sequencer.mem-master-port::system.ruby.l1_cntrl2.sequencer.pio-slave-port            2                       # Packet count per connected master and slave (bytes)
system.iobus.pkt_count_system.ruby.l1_cntrl0.sequencer.mem-master-port::system.ruby.l1_cntrl3.sequencer.pio-slave-port            2                       # Packet count per connected master and slave (bytes)
system.iobus.pkt_count_system.ruby.l1_cntrl0.sequencer.mem-master-port::total          290                       # Packet count per connected master and slave (bytes)
system.iobus.pkt_count_system.ruby.l1_cntrl1.sequencer.mem-master-port::system.pc.south_bridge.ide.pio           80                       # Packet count per connected master and slave (bytes)
system.iobus.pkt_count_system.ruby.l1_cntrl1.sequencer.mem-master-port::system.pc.south_bridge.io_apic.pio            8                       # Packet count per connected master and slave (bytes)
system.iobus.pkt_count_system.ruby.l1_cntrl1.sequencer.mem-master-port::system.ruby.l1_cntrl1.sequencer.pio-slave-port          256                       # Packet count per connected master and slave (bytes)
system.iobus.pkt_count_system.ruby.l1_cntrl1.sequencer.mem-master-port::system.ruby.l1_cntrl2.sequencer.pio-slave-port            2                       # Packet count per connected master and slave (bytes)
system.iobus.pkt_count_system.ruby.l1_cntrl1.sequencer.mem-master-port::total          346                       # Packet count per connected master and slave (bytes)
system.iobus.pkt_count_system.ruby.l1_cntrl2.sequencer.mem-master-port::system.pc.south_bridge.ide.pio           12                       # Packet count per connected master and slave (bytes)
system.iobus.pkt_count_system.ruby.l1_cntrl2.sequencer.mem-master-port::system.pc.south_bridge.io_apic.pio            8                       # Packet count per connected master and slave (bytes)
system.iobus.pkt_count_system.ruby.l1_cntrl2.sequencer.mem-master-port::system.ruby.l1_cntrl0.sequencer.pio-slave-port            6                       # Packet count per connected master and slave (bytes)
system.iobus.pkt_count_system.ruby.l1_cntrl2.sequencer.mem-master-port::system.ruby.l1_cntrl1.sequencer.pio-slave-port            4                       # Packet count per connected master and slave (bytes)
system.iobus.pkt_count_system.ruby.l1_cntrl2.sequencer.mem-master-port::system.ruby.l1_cntrl2.sequencer.pio-slave-port          276                       # Packet count per connected master and slave (bytes)
system.iobus.pkt_count_system.ruby.l1_cntrl2.sequencer.mem-master-port::system.ruby.l1_cntrl3.sequencer.pio-slave-port            2                       # Packet count per connected master and slave (bytes)
system.iobus.pkt_count_system.ruby.l1_cntrl2.sequencer.mem-master-port::total          308                       # Packet count per connected master and slave (bytes)
system.iobus.pkt_count_system.ruby.l1_cntrl3.sequencer.mem-master-port::system.pc.south_bridge.io_apic.pio            6                       # Packet count per connected master and slave (bytes)
system.iobus.pkt_count_system.ruby.l1_cntrl3.sequencer.mem-master-port::system.pc.com_1.pio          176                       # Packet count per connected master and slave (bytes)
system.iobus.pkt_count_system.ruby.l1_cntrl3.sequencer.mem-master-port::system.ruby.l1_cntrl0.sequencer.pio-slave-port            2                       # Packet count per connected master and slave (bytes)
system.iobus.pkt_count_system.ruby.l1_cntrl3.sequencer.mem-master-port::system.ruby.l1_cntrl3.sequencer.pio-slave-port          252                       # Packet count per connected master and slave (bytes)
system.iobus.pkt_count_system.ruby.l1_cntrl3.sequencer.mem-master-port::total          436                       # Packet count per connected master and slave (bytes)
system.iobus.pkt_count::total                    1394                       # Packet count per connected master and slave (bytes)
system.iobus.pkt_size_system.pc.south_bridge.io_apic.int_master::system.ruby.l1_cntrl0.sequencer.pio-slave-port            4                       # Cumulative packet size per connected master and slave (bytes)
system.iobus.pkt_size_system.pc.south_bridge.io_apic.int_master::system.ruby.l1_cntrl1.sequencer.pio-slave-port            8                       # Cumulative packet size per connected master and slave (bytes)
system.iobus.pkt_size_system.pc.south_bridge.io_apic.int_master::system.ruby.l1_cntrl2.sequencer.pio-slave-port            8                       # Cumulative packet size per connected master and slave (bytes)
system.iobus.pkt_size_system.pc.south_bridge.io_apic.int_master::system.ruby.l1_cntrl3.sequencer.pio-slave-port            8                       # Cumulative packet size per connected master and slave (bytes)
system.iobus.pkt_size_system.pc.south_bridge.io_apic.int_master::total           28                       # Cumulative packet size per connected master and slave (bytes)
system.iobus.pkt_size_system.ruby.l1_cntrl0.sequencer.mem-master-port::system.pc.south_bridge.io_apic.pio           16                       # Cumulative packet size per connected master and slave (bytes)
system.iobus.pkt_size_system.ruby.l1_cntrl0.sequencer.mem-master-port::system.pc.com_1.pio            1                       # Cumulative packet size per connected master and slave (bytes)
system.iobus.pkt_size_system.ruby.l1_cntrl0.sequencer.mem-master-port::system.ruby.l1_cntrl0.sequencer.pio-slave-port          544                       # Cumulative packet size per connected master and slave (bytes)
system.iobus.pkt_size_system.ruby.l1_cntrl0.sequencer.mem-master-port::system.ruby.l1_cntrl1.sequencer.pio-slave-port            8                       # Cumulative packet size per connected master and slave (bytes)
system.iobus.pkt_size_system.ruby.l1_cntrl0.sequencer.mem-master-port::system.ruby.l1_cntrl2.sequencer.pio-slave-port            4                       # Cumulative packet size per connected master and slave (bytes)
system.iobus.pkt_size_system.ruby.l1_cntrl0.sequencer.mem-master-port::system.ruby.l1_cntrl3.sequencer.pio-slave-port            4                       # Cumulative packet size per connected master and slave (bytes)
system.iobus.pkt_size_system.ruby.l1_cntrl0.sequencer.mem-master-port::total          577                       # Cumulative packet size per connected master and slave (bytes)
system.iobus.pkt_size_system.ruby.l1_cntrl1.sequencer.mem-master-port::system.pc.south_bridge.ide.pio           46                       # Cumulative packet size per connected master and slave (bytes)
system.iobus.pkt_size_system.ruby.l1_cntrl1.sequencer.mem-master-port::system.pc.south_bridge.io_apic.pio           16                       # Cumulative packet size per connected master and slave (bytes)
system.iobus.pkt_size_system.ruby.l1_cntrl1.sequencer.mem-master-port::system.ruby.l1_cntrl1.sequencer.pio-slave-port          512                       # Cumulative packet size per connected master and slave (bytes)
system.iobus.pkt_size_system.ruby.l1_cntrl1.sequencer.mem-master-port::system.ruby.l1_cntrl2.sequencer.pio-slave-port            4                       # Cumulative packet size per connected master and slave (bytes)
system.iobus.pkt_size_system.ruby.l1_cntrl1.sequencer.mem-master-port::total          578                       # Cumulative packet size per connected master and slave (bytes)
system.iobus.pkt_size_system.ruby.l1_cntrl2.sequencer.mem-master-port::system.pc.south_bridge.ide.pio            6                       # Cumulative packet size per connected master and slave (bytes)
system.iobus.pkt_size_system.ruby.l1_cntrl2.sequencer.mem-master-port::system.pc.south_bridge.io_apic.pio           16                       # Cumulative packet size per connected master and slave (bytes)
system.iobus.pkt_size_system.ruby.l1_cntrl2.sequencer.mem-master-port::system.ruby.l1_cntrl0.sequencer.pio-slave-port           12                       # Cumulative packet size per connected master and slave (bytes)
system.iobus.pkt_size_system.ruby.l1_cntrl2.sequencer.mem-master-port::system.ruby.l1_cntrl1.sequencer.pio-slave-port            8                       # Cumulative packet size per connected master and slave (bytes)
system.iobus.pkt_size_system.ruby.l1_cntrl2.sequencer.mem-master-port::system.ruby.l1_cntrl2.sequencer.pio-slave-port          552                       # Cumulative packet size per connected master and slave (bytes)
system.iobus.pkt_size_system.ruby.l1_cntrl2.sequencer.mem-master-port::system.ruby.l1_cntrl3.sequencer.pio-slave-port            4                       # Cumulative packet size per connected master and slave (bytes)
system.iobus.pkt_size_system.ruby.l1_cntrl2.sequencer.mem-master-port::total          598                       # Cumulative packet size per connected master and slave (bytes)
system.iobus.pkt_size_system.ruby.l1_cntrl3.sequencer.mem-master-port::system.pc.south_bridge.io_apic.pio           12                       # Cumulative packet size per connected master and slave (bytes)
system.iobus.pkt_size_system.ruby.l1_cntrl3.sequencer.mem-master-port::system.pc.com_1.pio           88                       # Cumulative packet size per connected master and slave (bytes)
system.iobus.pkt_size_system.ruby.l1_cntrl3.sequencer.mem-master-port::system.ruby.l1_cntrl0.sequencer.pio-slave-port            4                       # Cumulative packet size per connected master and slave (bytes)
system.iobus.pkt_size_system.ruby.l1_cntrl3.sequencer.mem-master-port::system.ruby.l1_cntrl3.sequencer.pio-slave-port          504                       # Cumulative packet size per connected master and slave (bytes)
system.iobus.pkt_size_system.ruby.l1_cntrl3.sequencer.mem-master-port::total          608                       # Cumulative packet size per connected master and slave (bytes)
system.iobus.pkt_size::total                     2389                       # Cumulative packet size per connected master and slave (bytes)
system.iobus.reqLayer2.occupancy                86500                       # Layer occupancy (ticks)
system.iobus.reqLayer2.utilization                0.0                       # Layer utilization (%)
system.iobus.reqLayer8.occupancy                26996                       # Layer occupancy (ticks)
system.iobus.reqLayer8.utilization                0.0                       # Layer utilization (%)
system.iobus.reqLayer12.occupancy              113500                       # Layer occupancy (ticks)
system.iobus.reqLayer12.utilization               0.0                       # Layer utilization (%)
system.iobus.reqLayer17.occupancy              308999                       # Layer occupancy (ticks)
system.iobus.reqLayer17.utilization               0.0                       # Layer utilization (%)
system.iobus.reqLayer18.occupancy              327997                       # Layer occupancy (ticks)
system.iobus.reqLayer18.utilization               0.0                       # Layer utilization (%)
system.iobus.reqLayer19.occupancy              317994                       # Layer occupancy (ticks)
system.iobus.reqLayer19.utilization               0.0                       # Layer utilization (%)
system.iobus.reqLayer20.occupancy              294000                       # Layer occupancy (ticks)
system.iobus.reqLayer20.utilization               0.0                       # Layer utilization (%)
system.iobus.respLayer0.occupancy               10498                       # Layer occupancy (ticks)
system.iobus.respLayer0.utilization               0.0                       # Layer utilization (%)
system.iobus.respLayer2.occupancy              219500                       # Layer occupancy (ticks)
system.iobus.respLayer2.utilization               0.0                       # Layer utilization (%)
system.iobus.respLayer4.occupancy              252000                       # Layer occupancy (ticks)
system.iobus.respLayer4.utilization               0.0                       # Layer utilization (%)
system.iobus.respLayer6.occupancy              234000                       # Layer occupancy (ticks)
system.iobus.respLayer6.utilization               0.0                       # Layer utilization (%)
system.iobus.respLayer8.occupancy              349500                       # Layer occupancy (ticks)
system.iobus.respLayer8.utilization               0.0                       # Layer utilization (%)
system.pc.south_bridge.ide.disks.dma_read_full_pages            0                       # Number of full page size DMA reads (not PRD).
system.pc.south_bridge.ide.disks.dma_read_bytes            0                       # Number of bytes transfered via DMA reads (not PRD).
system.pc.south_bridge.ide.disks.dma_read_txs            0                       # Number of DMA read transactions (not PRD).
system.pc.south_bridge.ide.disks.dma_write_full_pages           33                       # Number of full page size DMA writes.
system.pc.south_bridge.ide.disks.dma_write_bytes       135168                       # Number of bytes transfered via DMA writes.
system.pc.south_bridge.ide.disks.dma_write_txs           33                       # Number of DMA write transactions.
system.ruby.clk_domain.clock                      500                       # Clock period in ticks
system.ruby.delayHist::bucket_size                  2                       # delay histogram for all message
system.ruby.delayHist::max_bucket                  19                       # delay histogram for all message
system.ruby.delayHist::samples                 695959                       # delay histogram for all message
system.ruby.delayHist::mean                  0.009025                       # delay histogram for all message
system.ruby.delayHist::stdev                 0.262321                       # delay histogram for all message
system.ruby.delayHist                    |      695001     99.86%     99.86% |         109      0.02%     99.88% |         139      0.02%     99.90% |         211      0.03%     99.93% |         458      0.07%     99.99% |           8      0.00%    100.00% |           7      0.00%    100.00% |          10      0.00%    100.00% |           9      0.00%    100.00% |           7      0.00%    100.00% # delay histogram for all message
system.ruby.delayHist::total                   695959                       # delay histogram for all message
[...]
system.ruby.LD.Directory.miss_type_mach_latency_hist_seqr |      359937     83.62%     83.62% |       40440      9.39%     93.01% |       23765      5.52%     98.53% |        2000      0.46%     99.00% |        3127      0.73%     99.72% |         967      0.22%     99.95% |         115      0.03%     99.97% |         107      0.02%    100.00% |           4      0.00%    100.00% |           0      0.00%    100.00%
system.ruby.LD.Directory.miss_type_mach_latency_hist_seqr::total       430462                      
system.ruby.ST.L1Cache.miss_type_mach_latency_hist_seqr::bucket_size            8                      
system.ruby.ST.L1Cache.miss_type_mach_latency_hist_seqr::max_bucket           79                      
system.ruby.ST.L1Cache.miss_type_mach_latency_hist_seqr::samples         1897                      
system.ruby.ST.L1Cache.miss_type_mach_latency_hist_seqr::mean    48.325250                      
system.ruby.ST.L1Cache.miss_type_mach_latency_hist_seqr::gmean    48.298261                      
system.ruby.ST.L1Cache.miss_type_mach_latency_hist_seqr::stdev     1.591499                      
system.ruby.ST.L1Cache.miss_type_mach_latency_hist_seqr |           0      0.00%      0.00% |           0      0.00%      0.00% |           0      0.00%      0.00% |           0      0.00%      0.00% |           0      0.00%      0.00% |         338     17.82%     17.82% |        1559     82.18%    100.00% |           0      0.00%    100.00% |           0      0.00%    100.00% |           0      0.00%    100.00%
system.ruby.ST.L1Cache.miss_type_mach_latency_hist_seqr::total         1897                      
system.ruby.ST.Directory.miss_type_mach_latency_hist_seqr::bucket_size          128                      
system.ruby.ST.Directory.miss_type_mach_latency_hist_seqr::max_bucket         1279                      
system.ruby.ST.Directory.miss_type_mach_latency_hist_seqr::samples       108841                      
system.ruby.ST.Directory.miss_type_mach_latency_hist_seqr::mean   138.091804                      
system.ruby.ST.Directory.miss_type_mach_latency_hist_seqr::gmean   126.736671                      
system.ruby.ST.Directory.miss_type_mach_latency_hist_seqr::stdev    78.137246                      
system.ruby.ST.Directory.miss_type_mach_latency_hist_seqr |       91098     83.70%     83.70% |        9045      8.31%     92.01% |        6256      5.75%     97.76% |        1283      1.18%     98.94% |         929      0.85%     99.79% |         168      0.15%     99.94% |          32      0.03%     99.97% |          25      0.02%    100.00% |           5      0.00%    100.00% |           0      0.00%    100.00%
system.ruby.ST.Directory.miss_type_mach_latency_hist_seqr::total       108841                      
system.ruby.IFETCH.L1Cache.miss_type_mach_latency_hist_seqr::bucket_size           32                      
system.ruby.IFETCH.L1Cache.miss_type_mach_latency_hist_seqr::max_bucket          319                      
system.ruby.IFETCH.L1Cache.miss_type_mach_latency_hist_seqr::samples       219237                      
system.ruby.IFETCH.L1Cache.miss_type_mach_latency_hist_seqr::mean    45.912715                      
system.ruby.IFETCH.L1Cache.miss_type_mach_latency_hist_seqr::gmean    45.876104                      
system.ruby.IFETCH.L1Cache.miss_type_mach_latency_hist_seqr::stdev     2.015761                      
system.ruby.IFETCH.L1Cache.miss_type_mach_latency_hist_seqr |           0      0.00%      0.00% |      219215     99.99%     99.99% |           8      0.00%     99.99% |           9      0.00%    100.00% |           2      0.00%    100.00% |           0      0.00%    100.00% |           0      0.00%    100.00% |           2      0.00%    100.00% |           1      0.00%    100.00% |           0      0.00%    100.00%
system.ruby.IFETCH.L1Cache.miss_type_mach_latency_hist_seqr::total       219237                      
system.ruby.IFETCH.Directory.miss_type_mach_latency_hist_seqr::bucket_size          128                      
system.ruby.IFETCH.Directory.miss_type_mach_latency_hist_seqr::max_bucket         1279                      
system.ruby.IFETCH.Directory.miss_type_mach_latency_hist_seqr::samples       117278                      
system.ruby.IFETCH.Directory.miss_type_mach_latency_hist_seqr::mean   125.042165                      
system.ruby.IFETCH.Directory.miss_type_mach_latency_hist_seqr::gmean   110.261972                      
system.ruby.IFETCH.Directory.miss_type_mach_latency_hist_seqr::stdev    78.780400                      
system.ruby.IFETCH.Directory.miss_type_mach_latency_hist_seqr |       89342     76.18%     76.18% |       20487     17.47%     93.65% |        5473      4.67%     98.32% |         826      0.70%     99.02% |         827      0.71%     99.72% |         278      0.24%     99.96% |          25      0.02%     99.98% |          20      0.02%    100.00% |           0      0.00%    100.00% |           0      0.00%    100.00%
system.ruby.IFETCH.Directory.miss_type_mach_latency_hist_seqr::total       117278                      
system.ruby.RMW_Read.L1Cache.miss_type_mach_latency_hist_seqr::bucket_size            8                      
system.ruby.RMW_Read.L1Cache.miss_type_mach_latency_hist_seqr::max_bucket           79                      
system.ruby.RMW_Read.L1Cache.miss_type_mach_latency_hist_seqr::samples          247                      
system.ruby.RMW_Read.L1Cache.miss_type_mach_latency_hist_seqr::mean    46.267206                      
system.ruby.RMW_Read.L1Cache.miss_type_mach_latency_hist_seqr::gmean    46.227255                      
system.ruby.RMW_Read.L1Cache.miss_type_mach_latency_hist_seqr::stdev     1.957230                      
system.ruby.RMW_Read.L1Cache.miss_type_mach_latency_hist_seqr |           0      0.00%      0.00% |           0      0.00%      0.00% |           0      0.00%      0.00% |           0      0.00%      0.00% |           0      0.00%      0.00% |         174     70.45%     70.45% |          73     29.55%    100.00% |           0      0.00%    100.00% |           0      0.00%    100.00% |           0      0.00%    100.00%
system.ruby.RMW_Read.L1Cache.miss_type_mach_latency_hist_seqr::total          247                      
system.ruby.RMW_Read.Directory.miss_type_mach_latency_hist_seqr::bucket_size          128                      
system.ruby.RMW_Read.Directory.miss_type_mach_latency_hist_seqr::max_bucket         1279                      
system.ruby.RMW_Read.Directory.miss_type_mach_latency_hist_seqr::samples         4659                      
system.ruby.RMW_Read.Directory.miss_type_mach_latency_hist_seqr::mean   142.101524                      
system.ruby.RMW_Read.Directory.miss_type_mach_latency_hist_seqr::gmean   130.673185                      
system.ruby.RMW_Read.Directory.miss_type_mach_latency_hist_seqr::stdev    74.172789                      
system.ruby.RMW_Read.Directory.miss_type_mach_latency_hist_seqr |        2947     63.25%     63.25% |        1365     29.30%     92.55% |         271      5.82%     98.37% |          27      0.58%     98.95% |          43      0.92%     99.87% |           4      0.09%     99.96% |           2      0.04%    100.00% |           0      0.00%    100.00% |           0      0.00%    100.00% |           0      0.00%    100.00%
system.ruby.RMW_Read.Directory.miss_type_mach_latency_hist_seqr::total         4659                      
system.ruby.Locked_RMW_Read.L1Cache.miss_type_mach_latency_hist_seqr::bucket_size            8                      
system.ruby.Locked_RMW_Read.L1Cache.miss_type_mach_latency_hist_seqr::max_bucket           79                      
system.ruby.Locked_RMW_Read.L1Cache.miss_type_mach_latency_hist_seqr::samples         1666                      
system.ruby.Locked_RMW_Read.L1Cache.miss_type_mach_latency_hist_seqr::mean    46.439376                      
system.ruby.Locked_RMW_Read.L1Cache.miss_type_mach_latency_hist_seqr::gmean    46.397885                      
system.ruby.Locked_RMW_Read.L1Cache.miss_type_mach_latency_hist_seqr::stdev     1.984985                      
system.ruby.Locked_RMW_Read.L1Cache.miss_type_mach_latency_hist_seqr |           0      0.00%      0.00% |           0      0.00%      0.00% |           0      0.00%      0.00% |           0      0.00%      0.00% |           0      0.00%      0.00% |        1083     65.01%     65.01% |         583     34.99%    100.00% |           0      0.00%    100.00% |           0      0.00%    100.00% |           0      0.00%    100.00%
system.ruby.Locked_RMW_Read.L1Cache.miss_type_mach_latency_hist_seqr::total         1666                      
system.ruby.Locked_RMW_Read.Directory.miss_type_mach_latency_hist_seqr::bucket_size          128                      
system.ruby.Locked_RMW_Read.Directory.miss_type_mach_latency_hist_seqr::max_bucket         1279                      
system.ruby.Locked_RMW_Read.Directory.miss_type_mach_latency_hist_seqr::samples         3537                      
system.ruby.Locked_RMW_Read.Directory.miss_type_mach_latency_hist_seqr::mean   145.521628                      
system.ruby.Locked_RMW_Read.Directory.miss_type_mach_latency_hist_seqr::gmean   132.998560                      
system.ruby.Locked_RMW_Read.Directory.miss_type_mach_latency_hist_seqr::stdev    79.894689                      
system.ruby.Locked_RMW_Read.Directory.miss_type_mach_latency_hist_seqr |        2060     58.24%     58.24% |        1210     34.21%     92.45% |         194      5.48%     97.94% |          26      0.74%     98.67% |          31      0.88%     99.55% |          14      0.40%     99.94% |           1      0.03%     99.97% |           1      0.03%    100.00% |           0      0.00%    100.00% |           0      0.00%    100.00%
system.ruby.Locked_RMW_Read.Directory.miss_type_mach_latency_hist_seqr::total         3537                      
system.ruby.Directory_Controller.GETX          590182      0.00%      0.00%
system.ruby.Directory_Controller.PUTX          417373      0.00%      0.00%
system.ruby.Directory_Controller.PUTX_NotOwner            2      0.00%      0.00%
system.ruby.Directory_Controller.DMA_READ            7      0.00%      0.00%
system.ruby.Directory_Controller.DMA_WRITE         2240      0.00%      0.00%
system.ruby.Directory_Controller.Memory_Data       417377      0.00%      0.00%
system.ruby.Directory_Controller.Memory_Ack       419613      0.00%      0.00%
system.ruby.Directory_Controller.I.GETX        417374      0.00%      0.00%
system.ruby.Directory_Controller.I.DMA_READ            3      0.00%      0.00%
system.ruby.Directory_Controller.I.DMA_WRITE         2240      0.00%      0.00%
system.ruby.Directory_Controller.M.GETX        172667      0.00%      0.00%
system.ruby.Directory_Controller.M.PUTX        417369      0.00%      0.00%
system.ruby.Directory_Controller.M.PUTX_NotOwner            2      0.00%      0.00%
system.ruby.Directory_Controller.M.DMA_READ            4      0.00%      0.00%
system.ruby.Directory_Controller.M_DRD.PUTX            4      0.00%      0.00%
system.ruby.Directory_Controller.M_DRDI.Memory_Ack            4      0.00%      0.00%
system.ruby.Directory_Controller.IM.GETX          140      0.00%      0.00%
system.ruby.Directory_Controller.IM.Memory_Data       417374      0.00%      0.00%
system.ruby.Directory_Controller.MI.GETX            1      0.00%      0.00%
system.ruby.Directory_Controller.MI.Memory_Ack       417369      0.00%      0.00%
system.ruby.Directory_Controller.ID.Memory_Data            3      0.00%      0.00%
system.ruby.Directory_Controller.ID_W.Memory_Ack         2240      0.00%      0.00%
system.ruby.DMA_Controller.ReadRequest   |           7    100.00%    100.00% |           0      0.00%    100.00%
system.ruby.DMA_Controller.ReadRequest::total            7                      
system.ruby.DMA_Controller.WriteRequest  |        2240    100.00%    100.00% |           0      0.00%    100.00%
system.ruby.DMA_Controller.WriteRequest::total         2240                      
system.ruby.DMA_Controller.Data          |           7    100.00%    100.00% |           0      0.00%    100.00%
system.ruby.DMA_Controller.Data::total              7                      
system.ruby.DMA_Controller.Ack           |        2240    100.00%    100.00% |           0      0.00%    100.00%
system.ruby.DMA_Controller.Ack::total            2240                      
system.ruby.DMA_Controller.READY.ReadRequest |           7    100.00%    100.00% |           0      0.00%    100.00%
system.ruby.DMA_Controller.READY.ReadRequest::total            7                      
system.ruby.DMA_Controller.READY.WriteRequest |        2240    100.00%    100.00% |           0      0.00%    100.00%
system.ruby.DMA_Controller.READY.WriteRequest::total         2240                      
system.ruby.DMA_Controller.BUSY_RD.Data  |           7    100.00%    100.00% |           0      0.00%    100.00%
system.ruby.DMA_Controller.BUSY_RD.Data::total            7                      
system.ruby.DMA_Controller.BUSY_WR.Ack   |        2240    100.00%    100.00% |           0      0.00%    100.00%
system.ruby.DMA_Controller.BUSY_WR.Ack::total         2240                      
system.ruby.L1Cache_Controller.Load      |      536398      0.79%      0.79% |      446551      0.66%      1.45% |    66448726     97.73%     99.17% |      562301      0.83%    100.00%
system.ruby.L1Cache_Controller.Load::total     67993976                      
system.ruby.L1Cache_Controller.Ifetch    |     2643402      0.66%      0.66% |     2367610      0.59%      1.24% |   395375209     98.05%     99.30% |     2838018      0.70%    100.00%
system.ruby.L1Cache_Controller.Ifetch::total    403224239                      
system.ruby.L1Cache_Controller.Store     |      403998      1.62%      1.62% |      338982      1.36%      2.98% |    23760146     95.22%     98.19% |      450721      1.81%    100.00%
system.ruby.L1Cache_Controller.Store::total     24953847                      
system.ruby.L1Cache_Controller.Data      |       99672     16.89%     16.89% |       76093     12.90%     29.79% |      331167     56.13%     85.91% |       83109     14.09%    100.00%
system.ruby.L1Cache_Controller.Data::total       590041                      
system.ruby.L1Cache_Controller.Fwd_GETX  |       48395     28.03%     28.03% |       38727     22.43%     50.46% |       33101     19.17%     69.63% |       52444     30.37%    100.00%
system.ruby.L1Cache_Controller.Fwd_GETX::total       172667                      
system.ruby.L1Cache_Controller.Inv       |           0      0.00%      0.00% |           6     75.00%     75.00% |           2     25.00%    100.00% |           0      0.00%    100.00%
system.ruby.L1Cache_Controller.Inv::total            8                      
system.ruby.L1Cache_Controller.Replacement |       58121     12.82%     12.82% |       42989      9.48%     22.30% |      315689     69.61%     91.91% |       36686      8.09%    100.00%
system.ruby.L1Cache_Controller.Replacement::total       453485                      
system.ruby.L1Cache_Controller.Writeback_Ack |       50755     12.16%     12.16% |       37698      9.03%     21.19% |      298588     71.54%     92.73% |       30332      7.27%    100.00%
system.ruby.L1Cache_Controller.Writeback_Ack::total       417373                      
system.ruby.L1Cache_Controller.Writeback_Nack |           0      0.00%      0.00% |           0      0.00%      0.00% |           2    100.00%    100.00% |           0      0.00%    100.00%
system.ruby.L1Cache_Controller.Writeback_Nack::total            2                      
system.ruby.L1Cache_Controller.I.Load    |       28255     10.12%     10.12% |       22419      8.03%     18.15% |      207439     74.30%     92.45% |       21089      7.55%    100.00%
system.ruby.L1Cache_Controller.I.Load::total       279202                      
system.ruby.L1Cache_Controller.I.Ifetch  |       57764     25.03%     25.03% |       46246     20.04%     45.06% |       74148     32.13%     77.19% |       52651     22.81%    100.00%
system.ruby.L1Cache_Controller.I.Ifetch::total       230809                      
system.ruby.L1Cache_Controller.I.Store   |       13653     17.06%     17.06% |        7428      9.28%     26.34% |       49580     61.95%     88.29% |        9369     11.71%    100.00%
system.ruby.L1Cache_Controller.I.Store::total        80030                      
system.ruby.L1Cache_Controller.I.Replacement |        7366     20.40%     20.40% |        5294     14.66%     35.06% |       17100     47.35%     82.41% |        6354     17.59%    100.00%
system.ruby.L1Cache_Controller.I.Replacement::total        36114                      
system.ruby.L1Cache_Controller.II.Writeback_Nack |           0      0.00%      0.00% |           0      0.00%      0.00% |           2    100.00%    100.00% |           0      0.00%    100.00%
system.ruby.L1Cache_Controller.II.Writeback_Nack::total            2                      
system.ruby.L1Cache_Controller.M.Load    |      508143      0.75%      0.75% |      424132      0.63%      1.38% |    66241287     97.82%     99.20% |      541212      0.80%    100.00%
system.ruby.L1Cache_Controller.M.Load::total     67714774                      
system.ruby.L1Cache_Controller.M.Ifetch  |     2585638      0.64%      0.64% |     2321364      0.58%      1.22% |   395301061     98.09%     99.31% |     2785367      0.69%    100.00%
system.ruby.L1Cache_Controller.M.Ifetch::total    402993430                      
system.ruby.L1Cache_Controller.M.Store   |      390345      1.57%      1.57% |      331554      1.33%      2.90% |    23710566     95.32%     98.23% |      441352      1.77%    100.00%
system.ruby.L1Cache_Controller.M.Store::total     24873817                      
system.ruby.L1Cache_Controller.M.Fwd_GETX |       48395     28.03%     28.03% |       38727     22.43%     50.46% |       33099     19.17%     69.63% |       52444     30.37%    100.00%
system.ruby.L1Cache_Controller.M.Fwd_GETX::total       172665                      
system.ruby.L1Cache_Controller.M.Inv     |           0      0.00%      0.00% |           3     75.00%     75.00% |           1     25.00%    100.00% |           0      0.00%    100.00%
system.ruby.L1Cache_Controller.M.Inv::total            4                      
system.ruby.L1Cache_Controller.M.Replacement |       50755     12.16%     12.16% |       37695      9.03%     21.19% |      298589     71.54%     92.73% |       30332      7.27%    100.00%
system.ruby.L1Cache_Controller.M.Replacement::total       417371                      
system.ruby.L1Cache_Controller.MI.Fwd_GETX |           0      0.00%      0.00% |           0      0.00%      0.00% |           2    100.00%    100.00% |           0      0.00%    100.00%
system.ruby.L1Cache_Controller.MI.Fwd_GETX::total            2                      
system.ruby.L1Cache_Controller.MI.Inv    |           0      0.00%      0.00% |           3     75.00%     75.00% |           1     25.00%    100.00% |           0      0.00%    100.00%
system.ruby.L1Cache_Controller.MI.Inv::total            4                      
system.ruby.L1Cache_Controller.MI.Writeback_Ack |       50755     12.16%     12.16% |       37698      9.03%     21.19% |      298588     71.54%     92.73% |       30332      7.27%    100.00%
system.ruby.L1Cache_Controller.MI.Writeback_Ack::total       417373                      
system.ruby.L1Cache_Controller.IS.Data   |       86019     16.87%     16.87% |       68665     13.46%     30.33% |      281587     55.21%     85.54% |       73740     14.46%    100.00%
system.ruby.L1Cache_Controller.IS.Data::total       510011                      
system.ruby.L1Cache_Controller.IM.Data   |       13653     17.06%     17.06% |        7428      9.28%     26.34% |       49580     61.95%     88.29% |        9369     11.71%    100.00%
system.ruby.L1Cache_Controller.IM.Data::total        80030                      

---------- End Simulation Statistics   ----------
