
---------- Begin Simulation Statistics ----------
sim_seconds                                  2.408901                       # Number of seconds simulated
sim_ticks                                2408901346500                       # Number of ticks simulated
final_tick                               57357536764001                       # Number of ticks from beginning of simulation (restored from checkpoints and never reset)
sim_freq                                 1000000000000                       # Frequency of simulated ticks
host_inst_rate                                 152782                       # Simulator instruction rate (inst/s)
host_op_rate                                   276947                       # Simulator op (including micro ops) rate (op/s)
host_tick_rate                              280246062                       # Simulator tick rate (ticks/s)
host_mem_usage                                1996584                       # Number of bytes of host memory used
host_seconds                                  8595.67                       # Real time elapsed on the host
sim_insts                                  1313261759                       # Number of instructions simulated
sim_ops                                    2380541794                       # Number of ops (including micro ops) simulated
system.voltage_domain.voltage                       1                       # Voltage in Volts
system.clk_domain.clock                          1000                       # Clock period in ticks
system.mem_ctrls.bytes_read::ruby.dir_cntrl0     64155808                       # Number of bytes read from this memory
system.mem_ctrls.bytes_read::total           64155808                       # Number of bytes read from this memory
system.mem_ctrls.bytes_written::ruby.dir_cntrl0     34070304                       # Number of bytes written to this memory
system.mem_ctrls.bytes_written::total        34070304                       # Number of bytes written to this memory
system.mem_ctrls.num_reads::ruby.dir_cntrl0      2004869                       # Number of read requests responded to by this memory
system.mem_ctrls.num_reads::total             2004869                       # Number of read requests responded to by this memory
system.mem_ctrls.num_writes::ruby.dir_cntrl0      1064697                       # Number of write requests responded to by this memory
system.mem_ctrls.num_writes::total            1064697                       # Number of write requests responded to by this memory
system.mem_ctrls.bw_read::ruby.dir_cntrl0     26632808                       # Total read bandwidth from this memory (bytes/s)
system.mem_ctrls.bw_read::total              26632808                       # Total read bandwidth from this memory (bytes/s)
system.mem_ctrls.bw_write::ruby.dir_cntrl0     14143503                       # Write bandwidth from this memory (bytes/s)
system.mem_ctrls.bw_write::total             14143503                       # Write bandwidth from this memory (bytes/s)
system.mem_ctrls.bw_total::ruby.dir_cntrl0     40776312                       # Total bandwidth to/from this memory (bytes/s)
system.mem_ctrls.bw_total::total             40776312                       # Total bandwidth to/from this memory (bytes/s)
system.mem_ctrls.readReqs                     2004869                       # Number of read requests accepted
system.mem_ctrls.writeReqs                    1064697                       # Number of write requests accepted
system.mem_ctrls.readBursts                   2004869                       # Number of DRAM read bursts, including those serviced by the write queue
system.mem_ctrls.writeBursts                  1064697                       # Number of DRAM write bursts, including those merged in the write queue
system.mem_ctrls.bytesReadDRAM              128281728                       # Total number of bytes read from DRAM
system.mem_ctrls.bytesReadWrQ                   29888                       # Total number of bytes read from write queue
system.mem_ctrls.bytesWritten                66175744                       # Total number of bytes written to DRAM
system.mem_ctrls.bytesReadSys                64155808                       # Total read bytes from the system interface side
system.mem_ctrls.bytesWrittenSys             34070304                       # Total written bytes from the system interface side
system.mem_ctrls.servicedByWrQ                    467                       # Number of DRAM read bursts serviced by the write queue
system.mem_ctrls.mergedWrBursts                 30690                       # Number of DRAM write bursts merged with an existing one
system.mem_ctrls.neitherReadNorWriteReqs            0                       # Number of requests that are neither read nor write
system.mem_ctrls.perBankRdBursts::0            125890                       # Per bank write bursts
system.mem_ctrls.perBankRdBursts::1            127551                       # Per bank write bursts
system.mem_ctrls.perBankRdBursts::2            121400                       # Per bank write bursts
system.mem_ctrls.perBankRdBursts::3            120278                       # Per bank write bursts
system.mem_ctrls.perBankRdBursts::4            126214                       # Per bank write bursts
system.mem_ctrls.perBankRdBursts::5            131597                       # Per bank write bursts
system.mem_ctrls.perBankRdBursts::6            125196                       # Per bank write bursts
system.mem_ctrls.perBankRdBursts::7            127567                       # Per bank write bursts
system.mem_ctrls.perBankRdBursts::8            129161                       # Per bank write bursts
system.mem_ctrls.perBankRdBursts::9            122971                       # Per bank write bursts
system.mem_ctrls.perBankRdBursts::10           122231                       # Per bank write bursts
system.mem_ctrls.perBankRdBursts::11           126444                       # Per bank write bursts
system.mem_ctrls.perBankRdBursts::12           118749                       # Per bank write bursts
system.mem_ctrls.perBankRdBursts::13           122966                       # Per bank write bursts
system.mem_ctrls.perBankRdBursts::14           127527                       # Per bank write bursts
system.mem_ctrls.perBankRdBursts::15           128660                       # Per bank write bursts
system.mem_ctrls.perBankWrBursts::0             64187                       # Per bank write bursts
system.mem_ctrls.perBankWrBursts::1             66916                       # Per bank write bursts
system.mem_ctrls.perBankWrBursts::2             63605                       # Per bank write bursts
system.mem_ctrls.perBankWrBursts::3             63078                       # Per bank write bursts
system.mem_ctrls.perBankWrBursts::4             64749                       # Per bank write bursts
system.mem_ctrls.perBankWrBursts::5             65630                       # Per bank write bursts
system.mem_ctrls.perBankWrBursts::6             64998                       # Per bank write bursts
system.mem_ctrls.perBankWrBursts::7             66421                       # Per bank write bursts
system.mem_ctrls.perBankWrBursts::8             65972                       # Per bank write bursts
system.mem_ctrls.perBankWrBursts::9             64406                       # Per bank write bursts
system.mem_ctrls.perBankWrBursts::10            63923                       # Per bank write bursts
system.mem_ctrls.perBankWrBursts::11            64016                       # Per bank write bursts
system.mem_ctrls.perBankWrBursts::12            62958                       # Per bank write bursts
system.mem_ctrls.perBankWrBursts::13            63900                       # Per bank write bursts
system.mem_ctrls.perBankWrBursts::14            64413                       # Per bank write bursts
system.mem_ctrls.perBankWrBursts::15            64824                       # Per bank write bursts
system.mem_ctrls.numRdRetry                         0                       # Number of times read queue was full causing retry
system.mem_ctrls.numWrRetry                         0                       # Number of times write queue was full causing retry
system.mem_ctrls.totGap                  2408901343000                       # Total gap between requests
system.mem_ctrls.readPktSize::0                     0                       # Read request sizes (log2)
system.mem_ctrls.readPktSize::1                     0                       # Read request sizes (log2)
system.mem_ctrls.readPktSize::2                     0                       # Read request sizes (log2)
system.mem_ctrls.readPktSize::3                     0                       # Read request sizes (log2)
system.mem_ctrls.readPktSize::4                     0                       # Read request sizes (log2)
system.mem_ctrls.readPktSize::5               2004869                       # Read request sizes (log2)
system.mem_ctrls.readPktSize::6                     0                       # Read request sizes (log2)
system.mem_ctrls.writePktSize::0                    0                       # Write request sizes (log2)
system.mem_ctrls.writePktSize::1                    0                       # Write request sizes (log2)
system.mem_ctrls.writePktSize::2                    0                       # Write request sizes (log2)
system.mem_ctrls.writePktSize::3                    0                       # Write request sizes (log2)
system.mem_ctrls.writePktSize::4                    0                       # Write request sizes (log2)
system.mem_ctrls.writePktSize::5              1064697                       # Write request sizes (log2)
system.mem_ctrls.writePktSize::6                    0                       # Write request sizes (log2)
system.mem_ctrls.rdQLenPdf::0                 1995414                       # What read queue length does an incoming req see
system.mem_ctrls.rdQLenPdf::1                    8939                       # What read queue length does an incoming req see
system.mem_ctrls.rdQLenPdf::2                      49                       # What read queue length does an incoming req see
system.mem_ctrls.rdQLenPdf::3                       0                       # What read queue length does an incoming req see
system.mem_ctrls.rdQLenPdf::4                       0                       # What read queue length does an incoming req see
system.mem_ctrls.rdQLenPdf::5                       0                       # What read queue length does an incoming req see
system.mem_ctrls.rdQLenPdf::6                       0                       # What read queue length does an incoming req see
system.mem_ctrls.rdQLenPdf::7                       0                       # What read queue length does an incoming req see
system.mem_ctrls.rdQLenPdf::8                       0                       # What read queue length does an incoming req see
system.mem_ctrls.rdQLenPdf::9                       0                       # What read queue length does an incoming req see
system.mem_ctrls.rdQLenPdf::10                      0                       # What read queue length does an incoming req see
system.mem_ctrls.rdQLenPdf::11                      0                       # What read queue length does an incoming req see
system.mem_ctrls.rdQLenPdf::12                      0                       # What read queue length does an incoming req see
system.mem_ctrls.rdQLenPdf::13                      0                       # What read queue length does an incoming req see
system.mem_ctrls.rdQLenPdf::14                      0                       # What read queue length does an incoming req see
system.mem_ctrls.rdQLenPdf::15                      0                       # What read queue length does an incoming req see
system.mem_ctrls.rdQLenPdf::16                      0                       # What read queue length does an incoming req see
system.mem_ctrls.rdQLenPdf::17                      0                       # What read queue length does an incoming req see
system.mem_ctrls.rdQLenPdf::18                      0                       # What read queue length does an incoming req see
system.mem_ctrls.rdQLenPdf::19                      0                       # What read queue length does an incoming req see
system.mem_ctrls.rdQLenPdf::20                      0                       # What read queue length does an incoming req see
system.mem_ctrls.rdQLenPdf::21                      0                       # What read queue length does an incoming req see
system.mem_ctrls.rdQLenPdf::22                      0                       # What read queue length does an incoming req see
system.mem_ctrls.rdQLenPdf::23                      0                       # What read queue length does an incoming req see
system.mem_ctrls.rdQLenPdf::24                      0                       # What read queue length does an incoming req see
system.mem_ctrls.rdQLenPdf::25                      0                       # What read queue length does an incoming req see
system.mem_ctrls.rdQLenPdf::26                      0                       # What read queue length does an incoming req see
system.mem_ctrls.rdQLenPdf::27                      0                       # What read queue length does an incoming req see
system.mem_ctrls.rdQLenPdf::28                      0                       # What read queue length does an incoming req see
system.mem_ctrls.rdQLenPdf::29                      0                       # What read queue length does an incoming req see
system.mem_ctrls.rdQLenPdf::30                      0                       # What read queue length does an incoming req see
system.mem_ctrls.rdQLenPdf::31                      0                       # What read queue length does an incoming req see
system.mem_ctrls.wrQLenPdf::0                       0                       # What write queue length does an incoming req see
system.mem_ctrls.wrQLenPdf::1                       0                       # What write queue length does an incoming req see
system.mem_ctrls.wrQLenPdf::2                       0                       # What write queue length does an incoming req see
system.mem_ctrls.wrQLenPdf::3                       0                       # What write queue length does an incoming req see
system.mem_ctrls.wrQLenPdf::4                       0                       # What write queue length does an incoming req see
system.mem_ctrls.wrQLenPdf::5                       0                       # What write queue length does an incoming req see
system.mem_ctrls.wrQLenPdf::6                       0                       # What write queue length does an incoming req see
system.mem_ctrls.wrQLenPdf::7                       0                       # What write queue length does an incoming req see
system.mem_ctrls.wrQLenPdf::8                       0                       # What write queue length does an incoming req see
system.mem_ctrls.wrQLenPdf::9                       0                       # What write queue length does an incoming req see
system.mem_ctrls.wrQLenPdf::10                      0                       # What write queue length does an incoming req see
system.mem_ctrls.wrQLenPdf::11                      0                       # What write queue length does an incoming req see
system.mem_ctrls.wrQLenPdf::12                      0                       # What write queue length does an incoming req see
system.mem_ctrls.wrQLenPdf::13                      0                       # What write queue length does an incoming req see
system.mem_ctrls.wrQLenPdf::14                      0                       # What write queue length does an incoming req see
system.mem_ctrls.wrQLenPdf::15                    923                       # What write queue length does an incoming req see
system.mem_ctrls.wrQLenPdf::16                   1047                       # What write queue length does an incoming req see
system.mem_ctrls.wrQLenPdf::17                  63657                       # What write queue length does an incoming req see
system.mem_ctrls.wrQLenPdf::18                  64541                       # What write queue length does an incoming req see
system.mem_ctrls.wrQLenPdf::19                  64566                       # What write queue length does an incoming req see
system.mem_ctrls.wrQLenPdf::20                  64565                       # What write queue length does an incoming req see
system.mem_ctrls.wrQLenPdf::21                  64571                       # What write queue length does an incoming req see
system.mem_ctrls.wrQLenPdf::22                  64579                       # What write queue length does an incoming req see
system.mem_ctrls.wrQLenPdf::23                  64581                       # What write queue length does an incoming req see
system.mem_ctrls.wrQLenPdf::24                  64588                       # What write queue length does an incoming req see
system.mem_ctrls.wrQLenPdf::25                  64583                       # What write queue length does an incoming req see
system.mem_ctrls.wrQLenPdf::26                  64588                       # What write queue length does an incoming req see
system.mem_ctrls.wrQLenPdf::27                  64561                       # What write queue length does an incoming req see
system.mem_ctrls.wrQLenPdf::28                  64559                       # What write queue length does an incoming req see
system.mem_ctrls.wrQLenPdf::29                  64532                       # What write queue length does an incoming req see
system.mem_ctrls.wrQLenPdf::30                  64530                       # What write queue length does an incoming req see
system.mem_ctrls.wrQLenPdf::31                  64517                       # What write queue length does an incoming req see
system.mem_ctrls.wrQLenPdf::32                  64504                       # What write queue length does an incoming req see
system.mem_ctrls.wrQLenPdf::33                     15                       # What write queue length does an incoming req see
system.mem_ctrls.wrQLenPdf::34                      0                       # What write queue length does an incoming req see
system.mem_ctrls.wrQLenPdf::35                      0                       # What write queue length does an incoming req see
system.mem_ctrls.wrQLenPdf::36                      0                       # What write queue length does an incoming req see
system.mem_ctrls.wrQLenPdf::37                      0                       # What write queue length does an incoming req see
system.mem_ctrls.wrQLenPdf::38                      0                       # What write queue length does an incoming req see
system.mem_ctrls.wrQLenPdf::39                      0                       # What write queue length does an incoming req see
system.mem_ctrls.wrQLenPdf::40                      0                       # What write queue length does an incoming req see
system.mem_ctrls.wrQLenPdf::41                      0                       # What write queue length does an incoming req see
system.mem_ctrls.wrQLenPdf::42                      0                       # What write queue length does an incoming req see
system.mem_ctrls.wrQLenPdf::43                      0                       # What write queue length does an incoming req see
system.mem_ctrls.wrQLenPdf::44                      0                       # What write queue length does an incoming req see
system.mem_ctrls.wrQLenPdf::45                      0                       # What write queue length does an incoming req see
system.mem_ctrls.wrQLenPdf::46                      0                       # What write queue length does an incoming req see
system.mem_ctrls.wrQLenPdf::47                      0                       # What write queue length does an incoming req see
system.mem_ctrls.wrQLenPdf::48                      0                       # What write queue length does an incoming req see
system.mem_ctrls.wrQLenPdf::49                      0                       # What write queue length does an incoming req see
system.mem_ctrls.wrQLenPdf::50                      0                       # What write queue length does an incoming req see
system.mem_ctrls.wrQLenPdf::51                      0                       # What write queue length does an incoming req see
system.mem_ctrls.wrQLenPdf::52                      0                       # What write queue length does an incoming req see
system.mem_ctrls.wrQLenPdf::53                      0                       # What write queue length does an incoming req see
system.mem_ctrls.wrQLenPdf::54                      0                       # What write queue length does an incoming req see
system.mem_ctrls.wrQLenPdf::55                      0                       # What write queue length does an incoming req see
system.mem_ctrls.wrQLenPdf::56                      0                       # What write queue length does an incoming req see
system.mem_ctrls.wrQLenPdf::57                      0                       # What write queue length does an incoming req see
system.mem_ctrls.wrQLenPdf::58                      0                       # What write queue length does an incoming req see
system.mem_ctrls.wrQLenPdf::59                      0                       # What write queue length does an incoming req see
system.mem_ctrls.wrQLenPdf::60                      0                       # What write queue length does an incoming req see
system.mem_ctrls.wrQLenPdf::61                      0                       # What write queue length does an incoming req see
system.mem_ctrls.wrQLenPdf::62                      0                       # What write queue length does an incoming req see
system.mem_ctrls.wrQLenPdf::63                      0                       # What write queue length does an incoming req see
system.mem_ctrls.bytesPerActivate::samples      1075586                       # Bytes accessed per row activation
system.mem_ctrls.bytesPerActivate::mean    180.792773                       # Bytes accessed per row activation
system.mem_ctrls.bytesPerActivate::gmean   123.536131                       # Bytes accessed per row activation
system.mem_ctrls.bytesPerActivate::stdev   208.835550                       # Bytes accessed per row activation
system.mem_ctrls.bytesPerActivate::0-127       519746     48.32%     48.32% # Bytes accessed per row activation
system.mem_ctrls.bytesPerActivate::128-255       326643     30.37%     78.69% # Bytes accessed per row activation
system.mem_ctrls.bytesPerActivate::256-383       121820     11.33%     90.02% # Bytes accessed per row activation
system.mem_ctrls.bytesPerActivate::384-511        24652      2.29%     92.31% # Bytes accessed per row activation
system.mem_ctrls.bytesPerActivate::512-639        17747      1.65%     93.96% # Bytes accessed per row activation
system.mem_ctrls.bytesPerActivate::640-767        13413      1.25%     95.21% # Bytes accessed per row activation
system.mem_ctrls.bytesPerActivate::768-895        12748      1.19%     96.39% # Bytes accessed per row activation
system.mem_ctrls.bytesPerActivate::896-1023         9067      0.84%     97.23% # Bytes accessed per row activation
system.mem_ctrls.bytesPerActivate::1024-1151        29750      2.77%    100.00% # Bytes accessed per row activation
system.mem_ctrls.bytesPerActivate::total      1075586                       # Bytes accessed per row activation
system.mem_ctrls.rdPerTurnAround::samples        64497                       # Reads before turning the bus around for writes
system.mem_ctrls.rdPerTurnAround::mean      31.076918                       # Reads before turning the bus around for writes
system.mem_ctrls.rdPerTurnAround::stdev     53.801357                       # Reads before turning the bus around for writes
system.mem_ctrls.rdPerTurnAround::0-255         64362     99.79%     99.79% # Reads before turning the bus around for writes
system.mem_ctrls.rdPerTurnAround::256-511          118      0.18%     99.97% # Reads before turning the bus around for writes
system.mem_ctrls.rdPerTurnAround::512-767            5      0.01%     99.98% # Reads before turning the bus around for writes
system.mem_ctrls.rdPerTurnAround::1792-2047            1      0.00%     99.98% # Reads before turning the bus around for writes
system.mem_ctrls.rdPerTurnAround::2048-2303            2      0.00%     99.99% # Reads before turning the bus around for writes
system.mem_ctrls.rdPerTurnAround::2560-2815            3      0.00%     99.99% # Reads before turning the bus around for writes
system.mem_ctrls.rdPerTurnAround::3328-3583            1      0.00%     99.99% # Reads before turning the bus around for writes
system.mem_ctrls.rdPerTurnAround::3584-3839            1      0.00%     99.99% # Reads before turning the bus around for writes
system.mem_ctrls.rdPerTurnAround::3840-4095            1      0.00%    100.00% # Reads before turning the bus around for writes
system.mem_ctrls.rdPerTurnAround::4096-4351            1      0.00%    100.00% # Reads before turning the bus around for writes
system.mem_ctrls.rdPerTurnAround::4608-4863            1      0.00%    100.00% # Reads before turning the bus around for writes
system.mem_ctrls.rdPerTurnAround::5888-6143            1      0.00%    100.00% # Reads before turning the bus around for writes
system.mem_ctrls.rdPerTurnAround::total         64497                       # Reads before turning the bus around for writes
system.mem_ctrls.wrPerTurnAround::samples        64497                       # Writes before turning the bus around for reads
system.mem_ctrls.wrPerTurnAround::mean      16.031691                       # Writes before turning the bus around for reads
system.mem_ctrls.wrPerTurnAround::gmean     16.029912                       # Writes before turning the bus around for reads
system.mem_ctrls.wrPerTurnAround::stdev      0.248264                       # Writes before turning the bus around for reads
system.mem_ctrls.wrPerTurnAround::16            63433     98.35%     98.35% # Writes before turning the bus around for reads
system.mem_ctrls.wrPerTurnAround::17               98      0.15%     98.50% # Writes before turning the bus around for reads
system.mem_ctrls.wrPerTurnAround::18              956      1.48%     99.98% # Writes before turning the bus around for reads
system.mem_ctrls.wrPerTurnAround::19                6      0.01%     99.99% # Writes before turning the bus around for reads
system.mem_ctrls.wrPerTurnAround::20                4      0.01%    100.00% # Writes before turning the bus around for reads
system.mem_ctrls.wrPerTurnAround::total         64497                       # Writes before turning the bus around for reads
system.mem_ctrls.totQLat                  26827627645                       # Total ticks spent queuing
system.mem_ctrls.totMemAccLat             64410165145                       # Total ticks spent from burst creation until serviced by the DRAM
system.mem_ctrls.totBusLat                10022010000                       # Total ticks spent in databus transfers
system.mem_ctrls.avgQLat                     13384.35                       # Average queueing delay per DRAM burst
system.mem_ctrls.avgBusLat                    5000.00                       # Average bus latency per DRAM burst
system.mem_ctrls.avgMemAccLat                32134.35                       # Average memory access latency per DRAM burst
system.mem_ctrls.avgRdBW                        53.25                       # Average DRAM read bandwidth in MiByte/s
system.mem_ctrls.avgWrBW                        27.47                       # Average achieved write bandwidth in MiByte/s
system.mem_ctrls.avgRdBWSys                     26.63                       # Average system read bandwidth in MiByte/s
system.mem_ctrls.avgWrBWSys                     14.14                       # Average system write bandwidth in MiByte/s
system.mem_ctrls.peakBW                      12800.00                       # Theoretical peak bandwidth in MiByte/s
system.mem_ctrls.busUtil                         0.63                       # Data bus utilization in percentage
system.mem_ctrls.busUtilRead                     0.42                       # Data bus utilization in percentage for reads
system.mem_ctrls.busUtilWrite                    0.21                       # Data bus utilization in percentage for writes
system.mem_ctrls.avgRdQLen                       1.00                       # Average read queue length when enqueuing
system.mem_ctrls.avgWrQLen                      25.50                       # Average write queue length when enqueuing
system.mem_ctrls.readRowHits                  1515734                       # Number of row buffer hits during reads
system.mem_ctrls.writeRowHits                  447082                       # Number of row buffer hits during writes
system.mem_ctrls.readRowHitRate                 75.62                       # Row buffer hit rate for reads
system.mem_ctrls.writeRowHitRate                43.24                       # Row buffer hit rate for writes
system.mem_ctrls.avgGap                     784769.36                       # Average gap between requests
system.mem_ctrls.pageHitRate                    64.60                       # Row buffer hit rate, read and write combined
system.mem_ctrls_0.actEnergy               4138994160                       # Energy for activate commands per rank (pJ)
system.mem_ctrls_0.preEnergy               2258379750                       # Energy for precharge commands per rank (pJ)
system.mem_ctrls_0.readEnergy              8145774000                       # Energy for read commands per rank (pJ)
system.mem_ctrls_0.writeEnergy             3393563040                       # Energy for write commands per rank (pJ)
system.mem_ctrls_0.refreshEnergy         158222678640                       # Energy for refresh commands per rank (pJ)
system.mem_ctrls_0.actBackEnergy         430039391040                       # Energy for active background per rank (pJ)
system.mem_ctrls_0.preBackEnergy         1076242814250                       # Energy for precharge background per rank (pJ)
system.mem_ctrls_0.totalEnergy           1682441594880                       # Total energy per rank (pJ)
system.mem_ctrls_0.averagePower            694.520502                       # Core power per rank (mW)
system.mem_ctrls_0.memoryStateTime::IDLE 1782459396250                       # Time in different power states
system.mem_ctrls_0.memoryStateTime::REF   80438540000                       # Time in different power states
system.mem_ctrls_0.memoryStateTime::PRE_PDN            0                       # Time in different power states
system.mem_ctrls_0.memoryStateTime::ACT  546004312500                       # Time in different power states
system.mem_ctrls_0.memoryStateTime::ACT_PDN            0                       # Time in different power states
system.mem_ctrls_1.actEnergy               4094843760                       # Energy for activate commands per rank (pJ)
system.mem_ctrls_1.preEnergy               2234289750                       # Energy for precharge commands per rank (pJ)
system.mem_ctrls_1.readEnergy              8069513400                       # Energy for read commands per rank (pJ)
system.mem_ctrls_1.writeEnergy             3351792960                       # Energy for write commands per rank (pJ)
system.mem_ctrls_1.refreshEnergy         158222678640                       # Energy for refresh commands per rank (pJ)
system.mem_ctrls_1.actBackEnergy         428996455200                       # Energy for active background per rank (pJ)
system.mem_ctrls_1.preBackEnergy         1077157664250                       # Energy for precharge background per rank (pJ)
system.mem_ctrls_1.totalEnergy           1682127237960                       # Total energy per rank (pJ)
system.mem_ctrls_1.averagePower            694.390736                       # Core power per rank (mW)
system.mem_ctrls_1.memoryStateTime::IDLE 1782925292751                       # Time in different power states
system.mem_ctrls_1.memoryStateTime::REF   80438540000                       # Time in different power states
system.mem_ctrls_1.memoryStateTime::PRE_PDN            0                       # Time in different power states
system.mem_ctrls_1.memoryStateTime::ACT  545537703499                       # Time in different power states
system.mem_ctrls_1.memoryStateTime::ACT_PDN            0                       # Time in different power states
system.cpu_voltage_domain.voltage                   1                       # Voltage in Volts
system.cpu_clk_domain.clock                       500                       # Clock period in ticks
system.cpu0.apic_clk_domain.clock                8000                       # Clock period in ticks
system.cpu0.numCycles                      4820093777                       # number of cpu cycles simulated
system.cpu0.numWorkItemsStarted                     0                       # number of work items this cpu started
system.cpu0.numWorkItemsCompleted                   0                       # number of work items this cpu completed
system.cpu0.kern.inst.arm                           0                       # number of arm instructions executed
system.cpu0.kern.inst.quiesce                       0                       # number of quiesce instructions executed
system.cpu0.committedInsts                    3965057                       # Number of instructions committed
system.cpu0.committedOps                      8199495                       # Number of ops (including micro ops) committed
system.cpu0.num_int_alu_accesses              7975590                       # Number of integer alu accesses
system.cpu0.num_fp_alu_accesses                   372                       # Number of float alu accesses
system.cpu0.num_func_calls                     192920                       # number of times a function call or return occured
system.cpu0.num_conditional_control_insts       627743                       # number of instructions that are conditional controls
system.cpu0.num_int_insts                     7975590                       # number of integer instructions
system.cpu0.num_fp_insts                          372                       # number of float instructions
system.cpu0.num_int_register_reads           15602724                       # number of times the integer registers were read
system.cpu0.num_int_register_writes           6572167                       # number of times the integer registers were written
system.cpu0.num_fp_register_reads                 596                       # number of times the floating registers were read
system.cpu0.num_fp_register_writes                261                       # number of times the floating registers were written
system.cpu0.num_cc_register_reads             4886081                       # number of times the CC registers were read
system.cpu0.num_cc_register_writes            3012385                       # number of times the CC registers were written
system.cpu0.num_mem_refs                      1690114                       # number of memory refs
system.cpu0.num_load_insts                    1045196                       # Number of load instructions
system.cpu0.num_store_insts                    644918                       # Number of store instructions
system.cpu0.num_idle_cycles              4796403577.605051                       # Number of idle cycles
system.cpu0.num_busy_cycles              23690199.394949                       # Number of busy cycles
system.cpu0.not_idle_fraction                0.004915                       # Percentage of non-idle cycles
system.cpu0.idle_fraction                    0.995085                       # Percentage of idle cycles
system.cpu0.Branches                           886383                       # Number of branches fetched
system.cpu0.op_class::No_OpClass                83013      1.01%      1.01% # Class of executed instruction
system.cpu0.op_class::IntAlu                  6390162     77.93%     78.95% # Class of executed instruction
system.cpu0.op_class::IntMult                    9527      0.12%     79.06% # Class of executed instruction
system.cpu0.op_class::IntDiv                    26522      0.32%     79.38% # Class of executed instruction
system.cpu0.op_class::FloatAdd                    244      0.00%     79.39% # Class of executed instruction
system.cpu0.op_class::FloatCmp                      0      0.00%     79.39% # Class of executed instruction
system.cpu0.op_class::FloatCvt                      0      0.00%     79.39% # Class of executed instruction
system.cpu0.op_class::FloatMult                     0      0.00%     79.39% # Class of executed instruction
system.cpu0.op_class::FloatDiv                      0      0.00%     79.39% # Class of executed instruction
system.cpu0.op_class::FloatSqrt                     0      0.00%     79.39% # Class of executed instruction
system.cpu0.op_class::SimdAdd                       0      0.00%     79.39% # Class of executed instruction
system.cpu0.op_class::SimdAddAcc                    0      0.00%     79.39% # Class of executed instruction
system.cpu0.op_class::SimdAlu                       0      0.00%     79.39% # Class of executed instruction
system.cpu0.op_class::SimdCmp                       0      0.00%     79.39% # Class of executed instruction
system.cpu0.op_class::SimdCvt                       0      0.00%     79.39% # Class of executed instruction
system.cpu0.op_class::SimdMisc                      0      0.00%     79.39% # Class of executed instruction
system.cpu0.op_class::SimdMult                      0      0.00%     79.39% # Class of executed instruction
system.cpu0.op_class::SimdMultAcc                   0      0.00%     79.39% # Class of executed instruction
system.cpu0.op_class::SimdShift                     0      0.00%     79.39% # Class of executed instruction
system.cpu0.op_class::SimdShiftAcc                  0      0.00%     79.39% # Class of executed instruction
system.cpu0.op_class::SimdSqrt                      0      0.00%     79.39% # Class of executed instruction
system.cpu0.op_class::SimdFloatAdd                  0      0.00%     79.39% # Class of executed instruction
system.cpu0.op_class::SimdFloatAlu                  0      0.00%     79.39% # Class of executed instruction
system.cpu0.op_class::SimdFloatCmp                  0      0.00%     79.39% # Class of executed instruction
system.cpu0.op_class::SimdFloatCvt                  0      0.00%     79.39% # Class of executed instruction
system.cpu0.op_class::SimdFloatDiv                  0      0.00%     79.39% # Class of executed instruction
system.cpu0.op_class::SimdFloatMisc                 0      0.00%     79.39% # Class of executed instruction
system.cpu0.op_class::SimdFloatMult                 0      0.00%     79.39% # Class of executed instruction
system.cpu0.op_class::SimdFloatMultAcc              0      0.00%     79.39% # Class of executed instruction
system.cpu0.op_class::SimdFloatSqrt                 0      0.00%     79.39% # Class of executed instruction
system.cpu0.op_class::MemRead                 1045196     12.75%     92.13% # Class of executed instruction
system.cpu0.op_class::MemWrite                 644918      7.87%    100.00% # Class of executed instruction
system.cpu0.op_class::IprAccess                     0      0.00%    100.00% # Class of executed instruction
system.cpu0.op_class::InstPrefetch                  0      0.00%    100.00% # Class of executed instruction
system.cpu0.op_class::total                   8199582                       # Class of executed instruction
system.cpu1.apic_clk_domain.clock                8000                       # Clock period in ticks
system.cpu1.numCycles                      4811698129                       # number of cpu cycles simulated
system.cpu1.numWorkItemsStarted                     0                       # number of work items this cpu started
system.cpu1.numWorkItemsCompleted                   0                       # number of work items this cpu completed
system.cpu1.kern.inst.arm                           0                       # number of arm instructions executed
system.cpu1.kern.inst.quiesce                       0                       # number of quiesce instructions executed
system.cpu1.committedInsts                  462450330                       # Number of instructions committed
system.cpu1.committedOps                    839457595                       # Number of ops (including micro ops) committed
system.cpu1.num_int_alu_accesses            549943720                       # Number of integer alu accesses
system.cpu1.num_fp_alu_accesses             389145805                       # Number of float alu accesses
system.cpu1.num_func_calls                     772004                       # number of times a function call or return occured
system.cpu1.num_conditional_control_insts     58206376                       # number of instructions that are conditional controls
system.cpu1.num_int_insts                   549943720                       # number of integer instructions
system.cpu1.num_fp_insts                    389145805                       # number of float instructions
system.cpu1.num_int_register_reads         1072220395                       # number of times the integer registers were read
system.cpu1.num_int_register_writes         381478790                       # number of times the integer registers were written
system.cpu1.num_fp_register_reads           473296121                       # number of times the floating registers were read
system.cpu1.num_fp_register_writes          370409980                       # number of times the floating registers were written
system.cpu1.num_cc_register_reads           342098111                       # number of times the CC registers were read
system.cpu1.num_cc_register_writes          193044898                       # number of times the CC registers were written
system.cpu1.num_mem_refs                    139326545                       # number of memory refs
system.cpu1.num_load_insts                  124838469                       # Number of load instructions
system.cpu1.num_store_insts                  14488076                       # Number of store instructions
system.cpu1.num_idle_cycles              3107458012.190557                       # Number of idle cycles
system.cpu1.num_busy_cycles              1704240116.809443                       # Number of busy cycles
system.cpu1.not_idle_fraction                0.354187                       # Percentage of non-idle cycles
system.cpu1.idle_fraction                    0.645813                       # Percentage of idle cycles
system.cpu1.Branches                         60805175                       # Number of branches fetched
system.cpu1.op_class::No_OpClass              1490165      0.18%      0.18% # Class of executed instruction
system.cpu1.op_class::IntAlu                446704691     53.21%     53.39% # Class of executed instruction
system.cpu1.op_class::IntMult                 1621184      0.19%     53.58% # Class of executed instruction
system.cpu1.op_class::IntDiv                    15477      0.00%     53.58% # Class of executed instruction
system.cpu1.op_class::FloatAdd              250315859     29.82%     83.40% # Class of executed instruction
system.cpu1.op_class::FloatCmp                      0      0.00%     83.40% # Class of executed instruction
system.cpu1.op_class::FloatCvt                      0      0.00%     83.40% # Class of executed instruction
system.cpu1.op_class::FloatMult                     0      0.00%     83.40% # Class of executed instruction
system.cpu1.op_class::FloatDiv                      0      0.00%     83.40% # Class of executed instruction
system.cpu1.op_class::FloatSqrt                     0      0.00%     83.40% # Class of executed instruction
system.cpu1.op_class::SimdAdd                       0      0.00%     83.40% # Class of executed instruction
system.cpu1.op_class::SimdAddAcc                    0      0.00%     83.40% # Class of executed instruction
system.cpu1.op_class::SimdAlu                       0      0.00%     83.40% # Class of executed instruction
system.cpu1.op_class::SimdCmp                       0      0.00%     83.40% # Class of executed instruction
system.cpu1.op_class::SimdCvt                       0      0.00%     83.40% # Class of executed instruction
system.cpu1.op_class::SimdMisc                      0      0.00%     83.40% # Class of executed instruction
system.cpu1.op_class::SimdMult                      0      0.00%     83.40% # Class of executed instruction
system.cpu1.op_class::SimdMultAcc                   0      0.00%     83.40% # Class of executed instruction
system.cpu1.op_class::SimdShift                     0      0.00%     83.40% # Class of executed instruction
system.cpu1.op_class::SimdShiftAcc                  0      0.00%     83.40% # Class of executed instruction
system.cpu1.op_class::SimdSqrt                      0      0.00%     83.40% # Class of executed instruction
system.cpu1.op_class::SimdFloatAdd                  0      0.00%     83.40% # Class of executed instruction
system.cpu1.op_class::SimdFloatAlu                  0      0.00%     83.40% # Class of executed instruction
system.cpu1.op_class::SimdFloatCmp                  0      0.00%     83.40% # Class of executed instruction
system.cpu1.op_class::SimdFloatCvt                  0      0.00%     83.40% # Class of executed instruction
system.cpu1.op_class::SimdFloatDiv                  0      0.00%     83.40% # Class of executed instruction
system.cpu1.op_class::SimdFloatMisc                 0      0.00%     83.40% # Class of executed instruction
system.cpu1.op_class::SimdFloatMult                 0      0.00%     83.40% # Class of executed instruction
system.cpu1.op_class::SimdFloatMultAcc              0      0.00%     83.40% # Class of executed instruction
system.cpu1.op_class::SimdFloatSqrt                 0      0.00%     83.40% # Class of executed instruction
system.cpu1.op_class::MemRead               124838469     14.87%     98.27% # Class of executed instruction
system.cpu1.op_class::MemWrite               14488076      1.73%    100.00% # Class of executed instruction
system.cpu1.op_class::IprAccess                     0      0.00%    100.00% # Class of executed instruction
system.cpu1.op_class::InstPrefetch                  0      0.00%    100.00% # Class of executed instruction
system.cpu1.op_class::total                 839473921                       # Class of executed instruction
system.cpu2.apic_clk_domain.clock                8000                       # Clock period in ticks
system.cpu2.numCycles                      4815536176                       # number of cpu cycles simulated
system.cpu2.numWorkItemsStarted                     0                       # number of work items this cpu started
system.cpu2.numWorkItemsCompleted                   0                       # number of work items this cpu completed
system.cpu2.kern.inst.arm                           0                       # number of arm instructions executed
system.cpu2.kern.inst.quiesce                       0                       # number of quiesce instructions executed
system.cpu2.committedInsts                  840067313                       # Number of instructions committed
system.cpu2.committedOps                   1519342973                       # Number of ops (including micro ops) committed
system.cpu2.num_int_alu_accesses            966707048                       # Number of integer alu accesses
system.cpu2.num_fp_alu_accesses             741156491                       # Number of float alu accesses
system.cpu2.num_func_calls                     279063                       # number of times a function call or return occured
system.cpu2.num_conditional_control_insts    103566139                       # number of instructions that are conditional controls
system.cpu2.num_int_insts                   966707048                       # number of integer instructions
system.cpu2.num_fp_insts                    741156491                       # number of float instructions
system.cpu2.num_int_register_reads         1887470153                       # number of times the integer registers were read
system.cpu2.num_int_register_writes         660390367                       # number of times the integer registers were written
system.cpu2.num_fp_register_reads           909207553                       # number of times the floating registers were read
system.cpu2.num_fp_register_writes          705002023                       # number of times the floating registers were written
system.cpu2.num_cc_register_reads           603494616                       # number of times the CC registers were read
system.cpu2.num_cc_register_writes          338484382                       # number of times the CC registers were written
system.cpu2.num_mem_refs                    251213486                       # number of memory refs
system.cpu2.num_load_insts                  226548157                       # Number of load instructions
system.cpu2.num_store_insts                  24665329                       # Number of store instructions
system.cpu2.num_idle_cycles              1708766530.911657                       # Number of idle cycles
system.cpu2.num_busy_cycles              3106769645.088343                       # Number of busy cycles
system.cpu2.not_idle_fraction                0.645155                       # Percentage of non-idle cycles
system.cpu2.idle_fraction                    0.354845                       # Percentage of idle cycles
system.cpu2.Branches                        106656977                       # Number of branches fetched
system.cpu2.op_class::No_OpClass              2485255      0.16%      0.16% # Class of executed instruction
system.cpu2.op_class::IntAlu                789848398     51.99%     52.15% # Class of executed instruction
system.cpu2.op_class::IntMult                 2656766      0.17%     52.32% # Class of executed instruction
system.cpu2.op_class::IntDiv                     9242      0.00%     52.33% # Class of executed instruction
system.cpu2.op_class::FloatAdd              473129919     31.14%     83.47% # Class of executed instruction
system.cpu2.op_class::FloatCmp                      0      0.00%     83.47% # Class of executed instruction
system.cpu2.op_class::FloatCvt                      0      0.00%     83.47% # Class of executed instruction
system.cpu2.op_class::FloatMult                     0      0.00%     83.47% # Class of executed instruction
system.cpu2.op_class::FloatDiv                      0      0.00%     83.47% # Class of executed instruction
system.cpu2.op_class::FloatSqrt                     0      0.00%     83.47% # Class of executed instruction
system.cpu2.op_class::SimdAdd                       0      0.00%     83.47% # Class of executed instruction
system.cpu2.op_class::SimdAddAcc                    0      0.00%     83.47% # Class of executed instruction
system.cpu2.op_class::SimdAlu                       0      0.00%     83.47% # Class of executed instruction
system.cpu2.op_class::SimdCmp                       0      0.00%     83.47% # Class of executed instruction
system.cpu2.op_class::SimdCvt                       0      0.00%     83.47% # Class of executed instruction
system.cpu2.op_class::SimdMisc                      0      0.00%     83.47% # Class of executed instruction
system.cpu2.op_class::SimdMult                      0      0.00%     83.47% # Class of executed instruction
system.cpu2.op_class::SimdMultAcc                   0      0.00%     83.47% # Class of executed instruction
system.cpu2.op_class::SimdShift                     0      0.00%     83.47% # Class of executed instruction
system.cpu2.op_class::SimdShiftAcc                  0      0.00%     83.47% # Class of executed instruction
system.cpu2.op_class::SimdSqrt                      0      0.00%     83.47% # Class of executed instruction
system.cpu2.op_class::SimdFloatAdd                  0      0.00%     83.47% # Class of executed instruction
system.cpu2.op_class::SimdFloatAlu                  0      0.00%     83.47% # Class of executed instruction
system.cpu2.op_class::SimdFloatCmp                  0      0.00%     83.47% # Class of executed instruction
system.cpu2.op_class::SimdFloatCvt                  0      0.00%     83.47% # Class of executed instruction
system.cpu2.op_class::SimdFloatDiv                  0      0.00%     83.47% # Class of executed instruction
system.cpu2.op_class::SimdFloatMisc                 0      0.00%     83.47% # Class of executed instruction
system.cpu2.op_class::SimdFloatMult                 0      0.00%     83.47% # Class of executed instruction
system.cpu2.op_class::SimdFloatMultAcc              0      0.00%     83.47% # Class of executed instruction
system.cpu2.op_class::SimdFloatSqrt                 0      0.00%     83.47% # Class of executed instruction
system.cpu2.op_class::MemRead               226548157     14.91%     98.38% # Class of executed instruction
system.cpu2.op_class::MemWrite               24665329      1.62%    100.00% # Class of executed instruction
system.cpu2.op_class::IprAccess                     0      0.00%    100.00% # Class of executed instruction
system.cpu2.op_class::InstPrefetch                  0      0.00%    100.00% # Class of executed instruction
system.cpu2.op_class::total                1519343066                       # Class of executed instruction
system.cpu3.apic_clk_domain.clock                8000                       # Clock period in ticks
system.cpu3.numCycles                      4823078527                       # number of cpu cycles simulated
system.cpu3.numWorkItemsStarted                     0                       # number of work items this cpu started
system.cpu3.numWorkItemsCompleted                   0                       # number of work items this cpu completed
system.cpu3.kern.inst.arm                           0                       # number of arm instructions executed
system.cpu3.kern.inst.quiesce                       0                       # number of quiesce instructions executed
system.cpu3.committedInsts                    2006761                       # Number of instructions committed
system.cpu3.committedOps                      4272604                       # Number of ops (including micro ops) committed
system.cpu3.num_int_alu_accesses              4182066                       # Number of integer alu accesses
system.cpu3.num_fp_alu_accesses                    39                       # Number of float alu accesses
system.cpu3.num_func_calls                     112202                       # number of times a function call or return occured
system.cpu3.num_conditional_control_insts       331678                       # number of instructions that are conditional controls
system.cpu3.num_int_insts                     4182066                       # number of integer instructions
system.cpu3.num_fp_insts                           39                       # number of float instructions
system.cpu3.num_int_register_reads            8378598                       # number of times the integer registers were read
system.cpu3.num_int_register_writes           3455091                       # number of times the integer registers were written
system.cpu3.num_fp_register_reads                  63                       # number of times the floating registers were read
system.cpu3.num_fp_register_writes                 31                       # number of times the floating registers were written
system.cpu3.num_cc_register_reads             2556676                       # number of times the CC registers were read
system.cpu3.num_cc_register_writes            1309424                       # number of times the CC registers were written
system.cpu3.num_mem_refs                       974360                       # number of memory refs
system.cpu3.num_load_insts                     606522                       # Number of load instructions
system.cpu3.num_store_insts                    367838                       # Number of store instructions
system.cpu3.num_idle_cycles              4812840150.541357                       # Number of idle cycles
system.cpu3.num_busy_cycles              10238376.458643                       # Number of busy cycles
system.cpu3.not_idle_fraction                0.002123                       # Percentage of non-idle cycles
system.cpu3.idle_fraction                    0.997877                       # Percentage of idle cycles
system.cpu3.Branches                           480109                       # Number of branches fetched
system.cpu3.op_class::No_OpClass                73735      1.73%      1.73% # Class of executed instruction
system.cpu3.op_class::IntAlu                  3189877     74.66%     76.38% # Class of executed instruction
system.cpu3.op_class::IntMult                    8026      0.19%     76.57% # Class of executed instruction
system.cpu3.op_class::IntDiv                    26599      0.62%     77.19% # Class of executed instruction
system.cpu3.op_class::FloatAdd                     30      0.00%     77.20% # Class of executed instruction
system.cpu3.op_class::FloatCmp                      0      0.00%     77.20% # Class of executed instruction
system.cpu3.op_class::FloatCvt                      0      0.00%     77.20% # Class of executed instruction
system.cpu3.op_class::FloatMult                     0      0.00%     77.20% # Class of executed instruction
system.cpu3.op_class::FloatDiv                      0      0.00%     77.20% # Class of executed instruction
system.cpu3.op_class::FloatSqrt                     0      0.00%     77.20% # Class of executed instruction
system.cpu3.op_class::SimdAdd                       0      0.00%     77.20% # Class of executed instruction
system.cpu3.op_class::SimdAddAcc                    0      0.00%     77.20% # Class of executed instruction
system.cpu3.op_class::SimdAlu                       0      0.00%     77.20% # Class of executed instruction
system.cpu3.op_class::SimdCmp                       0      0.00%     77.20% # Class of executed instruction
system.cpu3.op_class::SimdCvt                       0      0.00%     77.20% # Class of executed instruction
system.cpu3.op_class::SimdMisc                      0      0.00%     77.20% # Class of executed instruction
system.cpu3.op_class::SimdMult                      0      0.00%     77.20% # Class of executed instruction
system.cpu3.op_class::SimdMultAcc                   0      0.00%     77.20% # Class of executed instruction
system.cpu3.op_class::SimdShift                     0      0.00%     77.20% # Class of executed instruction
system.cpu3.op_class::SimdShiftAcc                  0      0.00%     77.20% # Class of executed instruction
system.cpu3.op_class::SimdSqrt                      0      0.00%     77.20% # Class of executed instruction
system.cpu3.op_class::SimdFloatAdd                  0      0.00%     77.20% # Class of executed instruction
system.cpu3.op_class::SimdFloatAlu                  0      0.00%     77.20% # Class of executed instruction
system.cpu3.op_class::SimdFloatCmp                  0      0.00%     77.20% # Class of executed instruction
system.cpu3.op_class::SimdFloatCvt                  0      0.00%     77.20% # Class of executed instruction
system.cpu3.op_class::SimdFloatDiv                  0      0.00%     77.20% # Class of executed instruction
system.cpu3.op_class::SimdFloatMisc                 0      0.00%     77.20% # Class of executed instruction
system.cpu3.op_class::SimdFloatMult                 0      0.00%     77.20% # Class of executed instruction
system.cpu3.op_class::SimdFloatMultAcc              0      0.00%     77.20% # Class of executed instruction
system.cpu3.op_class::SimdFloatSqrt                 0      0.00%     77.20% # Class of executed instruction
system.cpu3.op_class::MemRead                  606522     14.20%     91.39% # Class of executed instruction
system.cpu3.op_class::MemWrite                 367838      8.61%    100.00% # Class of executed instruction
system.cpu3.op_class::IprAccess                     0      0.00%    100.00% # Class of executed instruction
system.cpu3.op_class::InstPrefetch                  0      0.00%    100.00% # Class of executed instruction
system.cpu3.op_class::total                   4272627                       # Class of executed instruction
system.iobus.trans_dist::ReadReq                  420                       # Transaction distribution
system.iobus.trans_dist::ReadResp                 420                       # Transaction distribution
system.iobus.trans_dist::WriteReq                3152                       # Transaction distribution
system.iobus.trans_dist::WriteResp               3152                       # Transaction distribution
system.iobus.trans_dist::MessageReq                58                       # Transaction distribution
system.iobus.trans_dist::MessageResp               58                       # Transaction distribution
system.iobus.pkt_count_system.pc.south_bridge.io_apic.int_master::system.ruby.l1_cntrl0.sequencer.pio-slave-port           24                       # Packet count per connected master and slave (bytes)
system.iobus.pkt_count_system.pc.south_bridge.io_apic.int_master::system.ruby.l1_cntrl1.sequencer.pio-slave-port           22                       # Packet count per connected master and slave (bytes)
system.iobus.pkt_count_system.pc.south_bridge.io_apic.int_master::system.ruby.l1_cntrl2.sequencer.pio-slave-port           22                       # Packet count per connected master and slave (bytes)
system.iobus.pkt_count_system.pc.south_bridge.io_apic.int_master::system.ruby.l1_cntrl3.sequencer.pio-slave-port           24                       # Packet count per connected master and slave (bytes)
system.iobus.pkt_count_system.pc.south_bridge.io_apic.int_master::total           92                       # Packet count per connected master and slave (bytes)
system.iobus.pkt_count_system.ruby.l1_cntrl0.sequencer.mem-master-port::system.pc.south_bridge.ide.pio          438                       # Packet count per connected master and slave (bytes)
system.iobus.pkt_count_system.ruby.l1_cntrl0.sequencer.mem-master-port::system.pc.south_bridge.io_apic.pio            8                       # Packet count per connected master and slave (bytes)
system.iobus.pkt_count_system.ruby.l1_cntrl0.sequencer.mem-master-port::system.pc.com_1.pio            2                       # Packet count per connected master and slave (bytes)
system.iobus.pkt_count_system.ruby.l1_cntrl0.sequencer.mem-master-port::system.ruby.l1_cntrl0.sequencer.pio-slave-port         1260                       # Packet count per connected master and slave (bytes)
system.iobus.pkt_count_system.ruby.l1_cntrl0.sequencer.mem-master-port::system.ruby.l1_cntrl1.sequencer.pio-slave-port            4                       # Packet count per connected master and slave (bytes)
system.iobus.pkt_count_system.ruby.l1_cntrl0.sequencer.mem-master-port::system.ruby.l1_cntrl2.sequencer.pio-slave-port            2                       # Packet count per connected master and slave (bytes)
system.iobus.pkt_count_system.ruby.l1_cntrl0.sequencer.mem-master-port::system.ruby.l1_cntrl3.sequencer.pio-slave-port            2                       # Packet count per connected master and slave (bytes)
system.iobus.pkt_count_system.ruby.l1_cntrl0.sequencer.mem-master-port::total         1716                       # Packet count per connected master and slave (bytes)
system.iobus.pkt_count_system.ruby.l1_cntrl1.sequencer.mem-master-port::system.pc.south_bridge.ide.pio          630                       # Packet count per connected master and slave (bytes)
system.iobus.pkt_count_system.ruby.l1_cntrl1.sequencer.mem-master-port::system.pc.south_bridge.io_apic.pio            6                       # Packet count per connected master and slave (bytes)
system.iobus.pkt_count_system.ruby.l1_cntrl1.sequencer.mem-master-port::system.pc.com_1.pio          174                       # Packet count per connected master and slave (bytes)
system.iobus.pkt_count_system.ruby.l1_cntrl1.sequencer.mem-master-port::system.ruby.l1_cntrl0.sequencer.pio-slave-port            2                       # Packet count per connected master and slave (bytes)
system.iobus.pkt_count_system.ruby.l1_cntrl1.sequencer.mem-master-port::system.ruby.l1_cntrl1.sequencer.pio-slave-port         1246                       # Packet count per connected master and slave (bytes)
system.iobus.pkt_count_system.ruby.l1_cntrl1.sequencer.mem-master-port::system.ruby.l1_cntrl2.sequencer.pio-slave-port            2                       # Packet count per connected master and slave (bytes)
system.iobus.pkt_count_system.ruby.l1_cntrl1.sequencer.mem-master-port::total         2060                       # Packet count per connected master and slave (bytes)
system.iobus.pkt_count_system.ruby.l1_cntrl2.sequencer.mem-master-port::system.pc.south_bridge.ide.pio          426                       # Packet count per connected master and slave (bytes)
system.iobus.pkt_count_system.ruby.l1_cntrl2.sequencer.mem-master-port::system.pc.south_bridge.io_apic.pio            8                       # Packet count per connected master and slave (bytes)
system.iobus.pkt_count_system.ruby.l1_cntrl2.sequencer.mem-master-port::system.ruby.l1_cntrl0.sequencer.pio-slave-port            4                       # Packet count per connected master and slave (bytes)
system.iobus.pkt_count_system.ruby.l1_cntrl2.sequencer.mem-master-port::system.ruby.l1_cntrl1.sequencer.pio-slave-port            4                       # Packet count per connected master and slave (bytes)
system.iobus.pkt_count_system.ruby.l1_cntrl2.sequencer.mem-master-port::system.ruby.l1_cntrl2.sequencer.pio-slave-port         1260                       # Packet count per connected master and slave (bytes)
system.iobus.pkt_count_system.ruby.l1_cntrl2.sequencer.mem-master-port::system.ruby.l1_cntrl3.sequencer.pio-slave-port            2                       # Packet count per connected master and slave (bytes)
system.iobus.pkt_count_system.ruby.l1_cntrl2.sequencer.mem-master-port::total         1704                       # Packet count per connected master and slave (bytes)
system.iobus.pkt_count_system.ruby.l1_cntrl3.sequencer.mem-master-port::system.pc.south_bridge.ide.pio          438                       # Packet count per connected master and slave (bytes)
system.iobus.pkt_count_system.ruby.l1_cntrl3.sequencer.mem-master-port::system.pc.south_bridge.io_apic.pio            8                       # Packet count per connected master and slave (bytes)
system.iobus.pkt_count_system.ruby.l1_cntrl3.sequencer.mem-master-port::system.ruby.l1_cntrl0.sequencer.pio-slave-port            2                       # Packet count per connected master and slave (bytes)
system.iobus.pkt_count_system.ruby.l1_cntrl3.sequencer.mem-master-port::system.ruby.l1_cntrl3.sequencer.pio-slave-port         1240                       # Packet count per connected master and slave (bytes)
system.iobus.pkt_count_system.ruby.l1_cntrl3.sequencer.mem-master-port::total         1688                       # Packet count per connected master and slave (bytes)
system.iobus.pkt_count::total                    7260                       # Packet count per connected master and slave (bytes)
system.iobus.pkt_size_system.pc.south_bridge.io_apic.int_master::system.ruby.l1_cntrl0.sequencer.pio-slave-port           48                       # Cumulative packet size per connected master and slave (bytes)
system.iobus.pkt_size_system.pc.south_bridge.io_apic.int_master::system.ruby.l1_cntrl1.sequencer.pio-slave-port           44                       # Cumulative packet size per connected master and slave (bytes)
system.iobus.pkt_size_system.pc.south_bridge.io_apic.int_master::system.ruby.l1_cntrl2.sequencer.pio-slave-port           44                       # Cumulative packet size per connected master and slave (bytes)
system.iobus.pkt_size_system.pc.south_bridge.io_apic.int_master::system.ruby.l1_cntrl3.sequencer.pio-slave-port           48                       # Cumulative packet size per connected master and slave (bytes)
system.iobus.pkt_size_system.pc.south_bridge.io_apic.int_master::total          184                       # Cumulative packet size per connected master and slave (bytes)
system.iobus.pkt_size_system.ruby.l1_cntrl0.sequencer.mem-master-port::system.pc.south_bridge.ide.pio          246                       # Cumulative packet size per connected master and slave (bytes)
system.iobus.pkt_size_system.ruby.l1_cntrl0.sequencer.mem-master-port::system.pc.south_bridge.io_apic.pio           16                       # Cumulative packet size per connected master and slave (bytes)
system.iobus.pkt_size_system.ruby.l1_cntrl0.sequencer.mem-master-port::system.pc.com_1.pio            1                       # Cumulative packet size per connected master and slave (bytes)
system.iobus.pkt_size_system.ruby.l1_cntrl0.sequencer.mem-master-port::system.ruby.l1_cntrl0.sequencer.pio-slave-port         2520                       # Cumulative packet size per connected master and slave (bytes)
system.iobus.pkt_size_system.ruby.l1_cntrl0.sequencer.mem-master-port::system.ruby.l1_cntrl1.sequencer.pio-slave-port            8                       # Cumulative packet size per connected master and slave (bytes)
system.iobus.pkt_size_system.ruby.l1_cntrl0.sequencer.mem-master-port::system.ruby.l1_cntrl2.sequencer.pio-slave-port            4                       # Cumulative packet size per connected master and slave (bytes)
system.iobus.pkt_size_system.ruby.l1_cntrl0.sequencer.mem-master-port::system.ruby.l1_cntrl3.sequencer.pio-slave-port            4                       # Cumulative packet size per connected master and slave (bytes)
system.iobus.pkt_size_system.ruby.l1_cntrl0.sequencer.mem-master-port::total         2799                       # Cumulative packet size per connected master and slave (bytes)
system.iobus.pkt_size_system.ruby.l1_cntrl1.sequencer.mem-master-port::system.pc.south_bridge.ide.pio          360                       # Cumulative packet size per connected master and slave (bytes)
system.iobus.pkt_size_system.ruby.l1_cntrl1.sequencer.mem-master-port::system.pc.south_bridge.io_apic.pio           12                       # Cumulative packet size per connected master and slave (bytes)
system.iobus.pkt_size_system.ruby.l1_cntrl1.sequencer.mem-master-port::system.pc.com_1.pio           87                       # Cumulative packet size per connected master and slave (bytes)
system.iobus.pkt_size_system.ruby.l1_cntrl1.sequencer.mem-master-port::system.ruby.l1_cntrl0.sequencer.pio-slave-port            4                       # Cumulative packet size per connected master and slave (bytes)
system.iobus.pkt_size_system.ruby.l1_cntrl1.sequencer.mem-master-port::system.ruby.l1_cntrl1.sequencer.pio-slave-port         2492                       # Cumulative packet size per connected master and slave (bytes)
system.iobus.pkt_size_system.ruby.l1_cntrl1.sequencer.mem-master-port::system.ruby.l1_cntrl2.sequencer.pio-slave-port            4                       # Cumulative packet size per connected master and slave (bytes)
system.iobus.pkt_size_system.ruby.l1_cntrl1.sequencer.mem-master-port::total         2959                       # Cumulative packet size per connected master and slave (bytes)
system.iobus.pkt_size_system.ruby.l1_cntrl2.sequencer.mem-master-port::system.pc.south_bridge.ide.pio          240                       # Cumulative packet size per connected master and slave (bytes)
system.iobus.pkt_size_system.ruby.l1_cntrl2.sequencer.mem-master-port::system.pc.south_bridge.io_apic.pio           16                       # Cumulative packet size per connected master and slave (bytes)
system.iobus.pkt_size_system.ruby.l1_cntrl2.sequencer.mem-master-port::system.ruby.l1_cntrl0.sequencer.pio-slave-port            8                       # Cumulative packet size per connected master and slave (bytes)
system.iobus.pkt_size_system.ruby.l1_cntrl2.sequencer.mem-master-port::system.ruby.l1_cntrl1.sequencer.pio-slave-port            8                       # Cumulative packet size per connected master and slave (bytes)
system.iobus.pkt_size_system.ruby.l1_cntrl2.sequencer.mem-master-port::system.ruby.l1_cntrl2.sequencer.pio-slave-port         2520                       # Cumulative packet size per connected master and slave (bytes)
system.iobus.pkt_size_system.ruby.l1_cntrl2.sequencer.mem-master-port::system.ruby.l1_cntrl3.sequencer.pio-slave-port            4                       # Cumulative packet size per connected master and slave (bytes)
system.iobus.pkt_size_system.ruby.l1_cntrl2.sequencer.mem-master-port::total         2796                       # Cumulative packet size per connected master and slave (bytes)
system.iobus.pkt_size_system.ruby.l1_cntrl3.sequencer.mem-master-port::system.pc.south_bridge.ide.pio          246                       # Cumulative packet size per connected master and slave (bytes)
system.iobus.pkt_size_system.ruby.l1_cntrl3.sequencer.mem-master-port::system.pc.south_bridge.io_apic.pio           16                       # Cumulative packet size per connected master and slave (bytes)
system.iobus.pkt_size_system.ruby.l1_cntrl3.sequencer.mem-master-port::system.ruby.l1_cntrl0.sequencer.pio-slave-port            4                       # Cumulative packet size per connected master and slave (bytes)
system.iobus.pkt_size_system.ruby.l1_cntrl3.sequencer.mem-master-port::system.ruby.l1_cntrl3.sequencer.pio-slave-port         2480                       # Cumulative packet size per connected master and slave (bytes)
system.iobus.pkt_size_system.ruby.l1_cntrl3.sequencer.mem-master-port::total         2746                       # Cumulative packet size per connected master and slave (bytes)
system.iobus.pkt_size::total                    11484                       # Cumulative packet size per connected master and slave (bytes)
system.iobus.reqLayer2.occupancy              1697000                       # Layer occupancy (ticks)
system.iobus.reqLayer2.utilization                0.0                       # Layer utilization (%)
system.iobus.reqLayer8.occupancy                27496                       # Layer occupancy (ticks)
system.iobus.reqLayer8.utilization                0.0                       # Layer utilization (%)
system.iobus.reqLayer12.occupancy              114000                       # Layer occupancy (ticks)
system.iobus.reqLayer12.utilization               0.0                       # Layer utilization (%)
system.iobus.reqLayer17.occupancy             1556488                       # Layer occupancy (ticks)
system.iobus.reqLayer17.utilization               0.0                       # Layer utilization (%)
system.iobus.reqLayer18.occupancy             1606297                       # Layer occupancy (ticks)
system.iobus.reqLayer18.utilization               0.0                       # Layer utilization (%)
system.iobus.reqLayer19.occupancy             1637653                       # Layer occupancy (ticks)
system.iobus.reqLayer19.utilization               0.0                       # Layer utilization (%)
system.iobus.reqLayer20.occupancy             1527988                       # Layer occupancy (ticks)
system.iobus.reqLayer20.utilization               0.0                       # Layer utilization (%)
system.iobus.respLayer0.occupancy               78458                       # Layer occupancy (ticks)
system.iobus.respLayer0.utilization               0.0                       # Layer utilization (%)
system.iobus.respLayer2.occupancy             1259000                       # Layer occupancy (ticks)
system.iobus.respLayer2.utilization               0.0                       # Layer utilization (%)
system.iobus.respLayer4.occupancy             1509500                       # Layer occupancy (ticks)
system.iobus.respLayer4.utilization               0.0                       # Layer utilization (%)
system.iobus.respLayer6.occupancy             1250000                       # Layer occupancy (ticks)
system.iobus.respLayer6.utilization               0.0                       # Layer utilization (%)
system.iobus.respLayer8.occupancy             1237000                       # Layer occupancy (ticks)
system.iobus.respLayer8.utilization               0.0                       # Layer utilization (%)
system.pc.south_bridge.ide.disks.dma_read_full_pages          357                       # Number of full page size DMA reads (not PRD).
system.pc.south_bridge.ide.disks.dma_read_bytes      1462272                       # Number of bytes transfered via DMA reads (not PRD).
system.pc.south_bridge.ide.disks.dma_read_txs          357                       # Number of DMA read transactions (not PRD).
system.pc.south_bridge.ide.disks.dma_write_full_pages            0                       # Number of full page size DMA writes.
system.pc.south_bridge.ide.disks.dma_write_bytes            0                       # Number of bytes transfered via DMA writes.
system.pc.south_bridge.ide.disks.dma_write_txs            0                       # Number of DMA write transactions.
system.ruby.clk_domain.clock                      500                       # Clock period in ticks
system.ruby.delayHist::bucket_size                  2                       # delay histogram for all message
system.ruby.delayHist::max_bucket                  19                       # delay histogram for all message
system.ruby.delayHist::samples               20497570                       # delay histogram for all message
system.ruby.delayHist::mean                  0.282930                       # delay histogram for all message
system.ruby.delayHist::stdev                 1.024520                       # delay histogram for all message
system.ruby.delayHist                    |    19036326     92.87%     92.87% |       26833      0.13%     93.00% |     1431805      6.99%     99.99% |        1861      0.01%    100.00% |         106      0.00%    100.00% |         619      0.00%    100.00% |           2      0.00%    100.00% |          15      0.00%    100.00% |           3      0.00%    100.00% |           0      0.00%    100.00% # delay histogram for all message
system.ruby.delayHist::total                 20497570                       # delay histogram for all message
system.ruby.outstanding_req_hist_seqr::bucket_size            1                      
system.ruby.outstanding_req_hist_seqr::max_bucket            9                      
system.ruby.outstanding_req_hist_seqr::samples   2280963633                      
system.ruby.outstanding_req_hist_seqr::mean     1.004798                      
system.ruby.outstanding_req_hist_seqr::gmean     1.003331                      
system.ruby.outstanding_req_hist_seqr::stdev     0.069100                      
system.ruby.outstanding_req_hist_seqr    |           0      0.00%      0.00% |  2270019890     99.52%     99.52% |    10943743      0.48%    100.00% |           0      0.00%    100.00% |           0      0.00%    100.00% |           0      0.00%    100.00% |           0      0.00%    100.00% |           0      0.00%    100.00% |           0      0.00%    100.00% |           0      0.00%    100.00%
system.ruby.outstanding_req_hist_seqr::total   2280963633                      
system.ruby.latency_hist_seqr::bucket_size          256                      
system.ruby.latency_hist_seqr::max_bucket         2559                      
[...]
system.ruby.Directory_Controller.IM.Memory_Data      2285677      0.00%      0.00%
system.ruby.Directory_Controller.MI.Memory_Ack      1246679      0.00%      0.00%
system.ruby.Directory_Controller.M_DRD.Data          441      0.00%      0.00%
system.ruby.Directory_Controller.M_DRDI.Memory_Ack          441      0.00%      0.00%
system.ruby.DMA_Controller.ReadRequest   |       45861    100.00%    100.00% |           0      0.00%    100.00%
system.ruby.DMA_Controller.ReadRequest::total        45861                      
system.ruby.DMA_Controller.WriteRequest  |         256    100.00%    100.00% |           0      0.00%    100.00%
system.ruby.DMA_Controller.WriteRequest::total          256                      
system.ruby.DMA_Controller.Data          |       45861    100.00%    100.00% |           0      0.00%    100.00%
system.ruby.DMA_Controller.Data::total          45861                      
system.ruby.DMA_Controller.Ack           |         256    100.00%    100.00% |           0      0.00%    100.00%
system.ruby.DMA_Controller.Ack::total             256                      
system.ruby.DMA_Controller.READY.ReadRequest |       45861    100.00%    100.00% |           0      0.00%    100.00%
system.ruby.DMA_Controller.READY.ReadRequest::total        45861                      
system.ruby.DMA_Controller.READY.WriteRequest |         256    100.00%    100.00% |           0      0.00%    100.00%
system.ruby.DMA_Controller.READY.WriteRequest::total          256                      
system.ruby.DMA_Controller.BUSY_RD.Data  |       45861    100.00%    100.00% |           0      0.00%    100.00%
system.ruby.DMA_Controller.BUSY_RD.Data::total        45861                      
system.ruby.DMA_Controller.BUSY_WR.Ack   |         256    100.00%    100.00% |           0      0.00%    100.00%
system.ruby.DMA_Controller.BUSY_WR.Ack::total          256                      
system.ruby.L1Cache_Controller.Load      |     1080197      0.28%      0.28% |   128942964     33.46%     33.74% |   254443875     66.03%     99.78% |      864178      0.22%    100.00%
system.ruby.L1Cache_Controller.Load::total    385331214                      
system.ruby.L1Cache_Controller.Ifetch    |     6030657      0.30%      0.30% |   665822804     33.67%     33.98% |  1301433130     65.82%     99.79% |     4107034      0.21%    100.00%
system.ruby.L1Cache_Controller.Ifetch::total   1977393625                      
system.ruby.L1Cache_Controller.Store     |      907395      1.66%      1.66% |    15581751     28.57%     30.23% |    37413848     68.60%     98.84% |      634874      1.16%    100.00%
system.ruby.L1Cache_Controller.Store::total     54537868                      
system.ruby.L1Cache_Controller.Inv       |       42753     29.07%     29.07% |       32555     22.14%     51.21% |       40362     27.45%     78.65% |       31391     21.35%    100.00%
system.ruby.L1Cache_Controller.Inv::total       147061                      
system.ruby.L1Cache_Controller.L1_Replacement |      156815      3.91%      3.91% |     1181026     29.43%     33.34% |     2573370     64.13%     97.46% |      101835      2.54%    100.00%
system.ruby.L1Cache_Controller.L1_Replacement::total      4013046                      
system.ruby.L1Cache_Controller.Fwd_GETX  |        1244     18.32%     18.32% |        1783     26.26%     44.59% |        2240     32.99%     77.58% |        1522     22.42%    100.00%
system.ruby.L1Cache_Controller.Fwd_GETX::total         6789                      
system.ruby.L1Cache_Controller.Fwd_GETS  |        7724     30.35%     30.35% |        5643     22.17%     52.52% |        5354     21.04%     73.56% |        6729     26.44%    100.00%
system.ruby.L1Cache_Controller.Fwd_GETS::total        25450                      
system.ruby.L1Cache_Controller.Data      |         918     21.42%     21.42% |         799     18.65%     40.07% |        1127     26.30%     66.37% |        1441     33.63%    100.00%
system.ruby.L1Cache_Controller.Data::total         4285                      
system.ruby.L1Cache_Controller.Data_Exclusive |       58825      2.13%      2.13% |      799931     28.98%     31.11% |     1874733     67.93%     99.04% |       26483      0.96%    100.00%
system.ruby.L1Cache_Controller.Data_Exclusive::total      2759972                      
system.ruby.L1Cache_Controller.DataS_fromL1 |        6121     24.05%     24.05% |        5074     19.94%     43.99% |        8837     34.72%     78.71% |        5418     21.29%    100.00%
system.ruby.L1Cache_Controller.DataS_fromL1::total        25450                      
system.ruby.L1Cache_Controller.Data_all_Acks |      105688      8.24%      8.24% |      390471     30.43%     38.66% |      700306     54.57%     93.23% |       86888      6.77%    100.00%
system.ruby.L1Cache_Controller.Data_all_Acks::total      1283353                      
system.ruby.L1Cache_Controller.Ack       |       14435     47.33%     47.33% |        5525     18.12%     65.45% |        5450     17.87%     83.32% |        5086     16.68%    100.00%
system.ruby.L1Cache_Controller.Ack::total        30496                      
system.ruby.L1Cache_Controller.Ack_all   |        7177     36.51%     36.51% |        4187     21.30%     57.80% |        4017     20.43%     78.23% |        4279     21.77%    100.00%
system.ruby.L1Cache_Controller.Ack_all::total        19660                      
system.ruby.L1Cache_Controller.WB_Ack    |       74270      2.06%      2.06% |     1074560     29.74%     31.79% |     2431117     67.28%     99.07% |       33645      0.93%    100.00%
system.ruby.L1Cache_Controller.WB_Ack::total      3613592                      
system.ruby.L1Cache_Controller.NP.Load   |       69720      2.48%      2.48% |      815502     28.98%     31.46% |     1893590     67.29%     98.75% |       35291      1.25%    100.00%
system.ruby.L1Cache_Controller.NP.Load::total      2814103                      
system.ruby.L1Cache_Controller.NP.Ifetch |       62822     20.12%     20.12% |       83340     26.69%     46.80% |      116487     37.30%     84.10% |       49639     15.90%    100.00%
system.ruby.L1Cache_Controller.NP.Ifetch::total       312288                      
system.ruby.L1Cache_Controller.NP.Store  |       24273      2.73%      2.73% |      282605     31.82%     34.55% |      563294     63.42%     97.97% |       18059      2.03%    100.00%
system.ruby.L1Cache_Controller.NP.Store::total       888231                      
system.ruby.L1Cache_Controller.NP.Inv    |       15260     31.05%     31.05% |        9166     18.65%     49.69% |       19843     40.37%     90.07% |        4883      9.93%    100.00%
system.ruby.L1Cache_Controller.NP.Inv::total        49152                      
system.ruby.L1Cache_Controller.I.Load    |        4256     19.63%     19.63% |        5880     27.12%     46.74% |        3908     18.02%     64.76% |        7641     35.24%    100.00%
system.ruby.L1Cache_Controller.I.Load::total        21685                      
system.ruby.L1Cache_Controller.I.Ifetch  |        8119     27.33%     27.33% |        7328     24.67%     52.00% |        6960     23.43%     75.42% |        7301     24.58%    100.00%
system.ruby.L1Cache_Controller.I.Ifetch::total        29708                      
system.ruby.L1Cache_Controller.I.Store   |        2362     33.53%     33.53% |        1620     23.00%     56.52% |         764     10.84%     67.37% |        2299     32.63%    100.00%
system.ruby.L1Cache_Controller.I.Store::total         7045                      
system.ruby.L1Cache_Controller.I.L1_Replacement |       13841     30.03%     30.03% |       10345     22.45%     52.48% |       10613     23.03%     75.51% |       11284     24.49%    100.00%
system.ruby.L1Cache_Controller.I.L1_Replacement::total        46083                      
system.ruby.L1Cache_Controller.S.Load    |      197034      5.78%      5.78% |      545177     15.98%     21.76% |     2504136     73.41%     95.16% |      165012      4.84%    100.00%
system.ruby.L1Cache_Controller.S.Load::total      3411359                      
system.ruby.L1Cache_Controller.S.Ifetch  |     5959716      0.30%      0.30% |   665732134     33.67%     33.97% |  1301309683     65.82%     99.80% |     4050094      0.20%    100.00%
system.ruby.L1Cache_Controller.S.Ifetch::total   1977051627                      
system.ruby.L1Cache_Controller.S.Store   |        6259     40.71%     40.71% |        3388     22.04%     62.74% |        2890     18.80%     81.54% |        2838     18.46%    100.00%
system.ruby.L1Cache_Controller.S.Store::total        15375                      
system.ruby.L1Cache_Controller.S.Inv     |       18834     25.35%     25.35% |       18441     24.82%     50.16% |       16810     22.62%     72.78% |       20224     27.22%    100.00%
system.ruby.L1Cache_Controller.S.Inv::total        74309                      
system.ruby.L1Cache_Controller.S.L1_Replacement |       68704     19.44%     19.44% |       96121     27.20%     46.64% |      131640     37.25%     83.90% |       56906     16.10%    100.00%
system.ruby.L1Cache_Controller.S.L1_Replacement::total       353371                      
system.ruby.L1Cache_Controller.E.Load    |      167775      0.05%      0.05% |   105978012     34.72%     34.77% |   198972613     65.18%     99.95% |      149204      0.05%    100.00%
system.ruby.L1Cache_Controller.E.Load::total    305267604                      
system.ruby.L1Cache_Controller.E.Store   |       27732      3.37%      3.37% |      225201     27.34%     30.70% |      565666     68.67%     99.37% |        5178      0.63%    100.00%
system.ruby.L1Cache_Controller.E.Store::total       823777                      
system.ruby.L1Cache_Controller.E.Inv     |        3005     35.14%     35.14% |        1583     18.51%     53.65% |        1881     21.99%     75.64% |        2083     24.36%    100.00%
system.ruby.L1Cache_Controller.E.Inv::total         8552                      
system.ruby.L1Cache_Controller.E.L1_Replacement |       25750      1.35%      1.35% |      569869     29.79%     31.13% |     1303684     68.15%     99.28% |       13752      0.72%    100.00%
system.ruby.L1Cache_Controller.E.L1_Replacement::total      1913055                      
system.ruby.L1Cache_Controller.E.Fwd_GETX |         231      7.28%      7.28% |        1010     31.84%     39.12% |        1392     43.88%     83.01% |         539     16.99%    100.00%
system.ruby.L1Cache_Controller.E.Fwd_GETX::total         3172                      
system.ruby.L1Cache_Controller.E.Fwd_GETS |        1751     16.27%     16.27% |        2236     20.78%     37.06% |        2711     25.20%     62.25% |        4061     37.75%    100.00%
system.ruby.L1Cache_Controller.E.Fwd_GETS::total        10759                      
system.ruby.L1Cache_Controller.M.Load    |      641412      0.87%      0.87% |    21598393     29.26%     30.13% |    51069628     69.18%     99.31% |      507030      0.69%    100.00%
system.ruby.L1Cache_Controller.M.Load::total     73816463                      
system.ruby.L1Cache_Controller.M.Store   |      846769      1.60%      1.60% |    15068937     28.54%     30.14% |    36281234     68.71%     98.85% |      606500      1.15%    100.00%
system.ruby.L1Cache_Controller.M.Store::total     52803440                      
system.ruby.L1Cache_Controller.M.Inv     |        5654     37.57%     37.57% |        3365     22.36%     59.93% |        1828     12.15%     72.08% |        4201     27.92%    100.00%
system.ruby.L1Cache_Controller.M.Inv::total        15048                      
system.ruby.L1Cache_Controller.M.L1_Replacement |       48520      2.85%      2.85% |      504691     29.68%     32.53% |     1127433     66.30%     98.83% |       19893      1.17%    100.00%
system.ruby.L1Cache_Controller.M.L1_Replacement::total      1700537                      
system.ruby.L1Cache_Controller.M.Fwd_GETX |        1013     28.01%     28.01% |         773     21.37%     49.38% |         848     23.44%     72.82% |         983     27.18%    100.00%
system.ruby.L1Cache_Controller.M.Fwd_GETX::total         3617                      
system.ruby.L1Cache_Controller.M.Fwd_GETS |        5973     40.66%     40.66% |        3407     23.19%     63.85% |        2643     17.99%     81.84% |        2668     18.16%    100.00%
system.ruby.L1Cache_Controller.M.Fwd_GETS::total        14691                      
system.ruby.L1Cache_Controller.IS.Data_Exclusive |       58825      2.13%      2.13% |      799931     28.98%     31.11% |     1874733     67.93%     99.04% |       26483      0.96%    100.00%
system.ruby.L1Cache_Controller.IS.Data_Exclusive::total      2759972                      
system.ruby.L1Cache_Controller.IS.DataS_fromL1 |        6121     24.05%     24.05% |        5074     19.94%     43.99% |        8837     34.72%     78.71% |        5418     21.29%    100.00%
system.ruby.L1Cache_Controller.IS.DataS_fromL1::total        25450                      
system.ruby.L1Cache_Controller.IS.Data_all_Acks |       79971     20.38%     20.38% |      107045     27.28%     47.66% |      137375     35.01%     82.68% |       67971     17.32%    100.00%
system.ruby.L1Cache_Controller.IS.Data_all_Acks::total       392362                      
system.ruby.L1Cache_Controller.IM.Data   |         918     21.42%     21.42% |         799     18.65%     40.07% |        1127     26.30%     66.37% |        1441     33.63%    100.00%
system.ruby.L1Cache_Controller.IM.Data::total         4285                      
system.ruby.L1Cache_Controller.IM.Data_all_Acks |       25717      2.89%      2.89% |      283426     31.81%     34.70% |      562931     63.18%     97.88% |       18917      2.12%    100.00%
system.ruby.L1Cache_Controller.IM.Data_all_Acks::total       890991                      
system.ruby.L1Cache_Controller.SM.Ack    |       14435     47.33%     47.33% |        5525     18.12%     65.45% |        5450     17.87%     83.32% |        5086     16.68%    100.00%
system.ruby.L1Cache_Controller.SM.Ack::total        30496                      
system.ruby.L1Cache_Controller.SM.Ack_all |        7177     36.51%     36.51% |        4187     21.30%     57.80% |        4017     20.43%     78.23% |        4279     21.77%    100.00%
system.ruby.L1Cache_Controller.SM.Ack_all::total        19660                      
system.ruby.L1Cache_Controller.M_I.Ifetch |           0      0.00%      0.00% |           2    100.00%    100.00% |           0      0.00%    100.00% |           0      0.00%    100.00%
system.ruby.L1Cache_Controller.M_I.Ifetch::total            2                      
system.ruby.L1Cache_Controller.M_I.WB_Ack |       74270      2.06%      2.06% |     1074560     29.74%     31.79% |     2431117     67.28%     99.07% |       33645      0.93%    100.00%
system.ruby.L1Cache_Controller.M_I.WB_Ack::total      3613592                      
system.ruby.L2Cache_Controller.L1_GET_INSTR       341996      0.00%      0.00%
system.ruby.L2Cache_Controller.L1_GETS        2835863      0.00%      0.00%
system.ruby.L2Cache_Controller.L1_GETX         895281      0.00%      0.00%
system.ruby.L2Cache_Controller.L1_UPGRADE        15375      0.00%      0.00%
system.ruby.L2Cache_Controller.L1_PUTX        3613592      0.00%      0.00%
system.ruby.L2Cache_Controller.L2_Replacement      1234886      0.00%      0.00%
system.ruby.L2Cache_Controller.L2_Replacement_clean      1047892      0.00%      0.00%
system.ruby.L2Cache_Controller.Mem_Data       2285677      0.00%      0.00%
system.ruby.L2Cache_Controller.Mem_Ack        2283219      0.00%      0.00%
system.ruby.L2Cache_Controller.WB_Data          29739      0.00%      0.00%
system.ruby.L2Cache_Controller.WB_Data_clean        10759      0.00%      0.00%
system.ruby.L2Cache_Controller.Ack              45147      0.00%      0.00%
system.ruby.L2Cache_Controller.Ack_all          52085      0.00%      0.00%
system.ruby.L2Cache_Controller.Unblock          25450      0.00%      0.00%
system.ruby.L2Cache_Controller.Exclusive_Unblock      3670623      0.00%      0.00%
system.ruby.L2Cache_Controller.MEM_Inv            882      0.00%      0.00%
system.ruby.L2Cache_Controller.NP.L1_GET_INSTR        42032      0.00%      0.00%
system.ruby.L2Cache_Controller.NP.L1_GETS      1472809      0.00%      0.00%
system.ruby.L2Cache_Controller.NP.L1_GETX       770836      0.00%      0.00%
system.ruby.L2Cache_Controller.SS.L1_GET_INSTR       299936      0.00%      0.00%
system.ruby.L2Cache_Controller.SS.L1_GETS        50286      0.00%      0.00%
system.ruby.L2Cache_Controller.SS.L1_GETX         4285      0.00%      0.00%
system.ruby.L2Cache_Controller.SS.L1_UPGRADE        15375      0.00%      0.00%
system.ruby.L2Cache_Controller.SS.L2_Replacement         2062      0.00%      0.00%
system.ruby.L2Cache_Controller.SS.L2_Replacement_clean        41471      0.00%      0.00%
system.ruby.L2Cache_Controller.M.L1_GET_INSTR           28      0.00%      0.00%
system.ruby.L2Cache_Controller.M.L1_GETS      1287203      0.00%      0.00%
system.ruby.L2Cache_Controller.M.L1_GETX       113366      0.00%      0.00%
system.ruby.L2Cache_Controller.M.L2_Replacement      1228779      0.00%      0.00%
system.ruby.L2Cache_Controller.M.L2_Replacement_clean       987175      0.00%      0.00%
system.ruby.L2Cache_Controller.M.MEM_Inv          132      0.00%      0.00%
system.ruby.L2Cache_Controller.MT.L1_GETS        25450      0.00%      0.00%
system.ruby.L2Cache_Controller.MT.L1_GETX         6789      0.00%      0.00%
system.ruby.L2Cache_Controller.MT.L1_PUTX      3613592      0.00%      0.00%
system.ruby.L2Cache_Controller.MT.L2_Replacement         4045      0.00%      0.00%
system.ruby.L2Cache_Controller.MT.L2_Replacement_clean        19246      0.00%      0.00%
system.ruby.L2Cache_Controller.MT.MEM_Inv          309      0.00%      0.00%
system.ruby.L2Cache_Controller.M_I.L1_GETS            1      0.00%      0.00%
system.ruby.L2Cache_Controller.M_I.Mem_Ack      2283219      0.00%      0.00%
system.ruby.L2Cache_Controller.M_I.MEM_Inv          132      0.00%      0.00%
system.ruby.L2Cache_Controller.MT_I.WB_Data         3255      0.00%      0.00%
system.ruby.L2Cache_Controller.MT_I.Ack_all         1099      0.00%      0.00%
system.ruby.L2Cache_Controller.MT_I.MEM_Inv          309      0.00%      0.00%
system.ruby.L2Cache_Controller.MCT_I.WB_Data        11793      0.00%      0.00%
system.ruby.L2Cache_Controller.MCT_I.Ack_all         7453      0.00%      0.00%
system.ruby.L2Cache_Controller.I_I.Ack          42750      0.00%      0.00%
system.ruby.L2Cache_Controller.I_I.Ack_all        41471      0.00%      0.00%
system.ruby.L2Cache_Controller.S_I.Ack           2397      0.00%      0.00%
system.ruby.L2Cache_Controller.S_I.Ack_all         2062      0.00%      0.00%
system.ruby.L2Cache_Controller.ISS.L1_GETS           40      0.00%      0.00%
system.ruby.L2Cache_Controller.ISS.Mem_Data      1472769      0.00%      0.00%
system.ruby.L2Cache_Controller.IS.Mem_Data        42072      0.00%      0.00%
system.ruby.L2Cache_Controller.IM.Mem_Data       770836      0.00%      0.00%
system.ruby.L2Cache_Controller.SS_MB.L1_GETS           45      0.00%      0.00%
system.ruby.L2Cache_Controller.SS_MB.L1_GETX            2      0.00%      0.00%
system.ruby.L2Cache_Controller.SS_MB.Exclusive_Unblock        19660      0.00%      0.00%
system.ruby.L2Cache_Controller.MT_MB.L1_GETS           25      0.00%      0.00%
system.ruby.L2Cache_Controller.MT_MB.L1_GETX            2      0.00%      0.00%
system.ruby.L2Cache_Controller.MT_MB.Exclusive_Unblock      3650963      0.00%      0.00%
system.ruby.L2Cache_Controller.MT_IIB.L1_GETS            4      0.00%      0.00%
system.ruby.L2Cache_Controller.MT_IIB.L1_GETX            1      0.00%      0.00%
system.ruby.L2Cache_Controller.MT_IIB.WB_Data        14691      0.00%      0.00%
system.ruby.L2Cache_Controller.MT_IIB.WB_Data_clean        10759      0.00%      0.00%
system.ruby.L2Cache_Controller.MT_SB.Unblock        25450      0.00%      0.00%

---------- End Simulation Statistics   ----------
