
---------- Begin Simulation Statistics ----------
sim_seconds                                  0.462906                       # Number of seconds simulated
sim_ticks                                462905639000                       # Number of ticks simulated
final_tick                               52370022900001                       # Number of ticks from beginning of simulation (restored from checkpoints and never reset)
sim_freq                                 1000000000000                       # Frequency of simulated ticks
host_inst_rate                                 136088                       # Simulator instruction rate (inst/s)
host_op_rate                                   245604                       # Simulator op (including micro ops) rate (op/s)
host_tick_rate                              234354148                       # Simulator tick rate (ticks/s)
host_mem_usage                                1815152                       # Number of bytes of host memory used
host_seconds                                  1975.24                       # Real time elapsed on the host
sim_insts                                   268806034                       # Number of instructions simulated
sim_ops                                     485126050                       # Number of ops (including micro ops) simulated
system.voltage_domain.voltage                       1                       # Voltage in Volts
system.clk_domain.clock                          1000                       # Clock period in ticks
system.mem_ctrls0.bytes_read::ruby.dir_cntrl0       223040                       # Number of bytes read from this memory
system.mem_ctrls0.bytes_read::total            223040                       # Number of bytes read from this memory
system.mem_ctrls0.bytes_written::ruby.dir_cntrl0        81856                       # Number of bytes written to this memory
system.mem_ctrls0.bytes_written::total          81856                       # Number of bytes written to this memory
system.mem_ctrls0.num_reads::ruby.dir_cntrl0         3485                       # Number of read requests responded to by this memory
system.mem_ctrls0.num_reads::total               3485                       # Number of read requests responded to by this memory
system.mem_ctrls0.num_writes::ruby.dir_cntrl0         1279                       # Number of write requests responded to by this memory
system.mem_ctrls0.num_writes::total              1279                       # Number of write requests responded to by this memory
system.mem_ctrls0.bw_read::ruby.dir_cntrl0       481826                       # Total read bandwidth from this memory (bytes/s)
system.mem_ctrls0.bw_read::total               481826                       # Total read bandwidth from this memory (bytes/s)
system.mem_ctrls0.bw_write::ruby.dir_cntrl0       176831                       # Write bandwidth from this memory (bytes/s)
system.mem_ctrls0.bw_write::total              176831                       # Write bandwidth from this memory (bytes/s)
system.mem_ctrls0.bw_total::ruby.dir_cntrl0       658657                       # Total bandwidth to/from this memory (bytes/s)
system.mem_ctrls0.bw_total::total              658657                       # Total bandwidth to/from this memory (bytes/s)
system.mem_ctrls0.readReqs                       3485                       # Number of read requests accepted
system.mem_ctrls0.writeReqs                      1279                       # Number of write requests accepted
system.mem_ctrls0.readBursts                     3485                       # Number of DRAM read bursts, including those serviced by the write queue
system.mem_ctrls0.writeBursts                    1279                       # Number of DRAM write bursts, including those merged in the write queue
system.mem_ctrls0.bytesReadDRAM                221824                       # Total number of bytes read from DRAM
system.mem_ctrls0.bytesReadWrQ                   1216                       # Total number of bytes read from write queue
system.mem_ctrls0.bytesWritten                  81408                       # Total number of bytes written to DRAM
system.mem_ctrls0.bytesReadSys                 223040                       # Total read bytes from the system interface side
system.mem_ctrls0.bytesWrittenSys               81856                       # Total written bytes from the system interface side
system.mem_ctrls0.servicedByWrQ                    19                       # Number of DRAM read bursts serviced by the write queue
system.mem_ctrls0.mergedWrBursts                    0                       # Number of DRAM write bursts merged with an existing one
system.mem_ctrls0.neitherReadNorWriteReqs            0                       # Number of requests that are neither read nor write
system.mem_ctrls0.perBankRdBursts::0              124                       # Per bank write bursts
system.mem_ctrls0.perBankRdBursts::1              185                       # Per bank write bursts
system.mem_ctrls0.perBankRdBursts::2              219                       # Per bank write bursts
system.mem_ctrls0.perBankRdBursts::3              206                       # Per bank write bursts
system.mem_ctrls0.perBankRdBursts::4               83                       # Per bank write bursts
system.mem_ctrls0.perBankRdBursts::5              230                       # Per bank write bursts
system.mem_ctrls0.perBankRdBursts::6              127                       # Per bank write bursts
system.mem_ctrls0.perBankRdBursts::7              117                       # Per bank write bursts
system.mem_ctrls0.perBankRdBursts::8              163                       # Per bank write bursts
system.mem_ctrls0.perBankRdBursts::9              255                       # Per bank write bursts
system.mem_ctrls0.perBankRdBursts::10             331                       # Per bank write bursts
system.mem_ctrls0.perBankRdBursts::11             312                       # Per bank write bursts
system.mem_ctrls0.perBankRdBursts::12             229                       # Per bank write bursts
system.mem_ctrls0.perBankRdBursts::13             290                       # Per bank write bursts
system.mem_ctrls0.perBankRdBursts::14             249                       # Per bank write bursts
system.mem_ctrls0.perBankRdBursts::15             346                       # Per bank write bursts
system.mem_ctrls0.perBankWrBursts::0               70                       # Per bank write bursts
system.mem_ctrls0.perBankWrBursts::1              162                       # Per bank write bursts
system.mem_ctrls0.perBankWrBursts::2              132                       # Per bank write bursts
system.mem_ctrls0.perBankWrBursts::3              167                       # Per bank write bursts
system.mem_ctrls0.perBankWrBursts::4               44                       # Per bank write bursts
system.mem_ctrls0.perBankWrBursts::5                5                       # Per bank write bursts
system.mem_ctrls0.perBankWrBursts::6                0                       # Per bank write bursts
system.mem_ctrls0.perBankWrBursts::7               32                       # Per bank write bursts
system.mem_ctrls0.perBankWrBursts::8               82                       # Per bank write bursts
system.mem_ctrls0.perBankWrBursts::9               24                       # Per bank write bursts
system.mem_ctrls0.perBankWrBursts::10              58                       # Per bank write bursts
system.mem_ctrls0.perBankWrBursts::11               5                       # Per bank write bursts
system.mem_ctrls0.perBankWrBursts::12             163                       # Per bank write bursts
system.mem_ctrls0.perBankWrBursts::13             164                       # Per bank write bursts
system.mem_ctrls0.perBankWrBursts::14              12                       # Per bank write bursts
system.mem_ctrls0.perBankWrBursts::15             152                       # Per bank write bursts
system.mem_ctrls0.numRdRetry                        0                       # Number of times read queue was full causing retry
system.mem_ctrls0.numWrRetry                        0                       # Number of times write queue was full causing retry
system.mem_ctrls0.totGap                 462905651000                       # Total gap between requests
system.mem_ctrls0.readPktSize::0                    0                       # Read request sizes (log2)
system.mem_ctrls0.readPktSize::1                    0                       # Read request sizes (log2)
system.mem_ctrls0.readPktSize::2                    0                       # Read request sizes (log2)
system.mem_ctrls0.readPktSize::3                    0                       # Read request sizes (log2)
system.mem_ctrls0.readPktSize::4                    0                       # Read request sizes (log2)
system.mem_ctrls0.readPktSize::5                    0                       # Read request sizes (log2)
system.mem_ctrls0.readPktSize::6                 3485                       # Read request sizes (log2)
system.mem_ctrls0.writePktSize::0                   0                       # Write request sizes (log2)
system.mem_ctrls0.writePktSize::1                   0                       # Write request sizes (log2)
system.mem_ctrls0.writePktSize::2                   0                       # Write request sizes (log2)
system.mem_ctrls0.writePktSize::3                   0                       # Write request sizes (log2)
system.mem_ctrls0.writePktSize::4                   0                       # Write request sizes (log2)
system.mem_ctrls0.writePktSize::5                   0                       # Write request sizes (log2)
system.mem_ctrls0.writePktSize::6                1279                       # Write request sizes (log2)
system.mem_ctrls0.rdQLenPdf::0                   3397                       # What read queue length does an incoming req see
system.mem_ctrls0.rdQLenPdf::1                     69                       # What read queue length does an incoming req see
system.mem_ctrls0.rdQLenPdf::2                      0                       # What read queue length does an incoming req see
system.mem_ctrls0.rdQLenPdf::3                      0                       # What read queue length does an incoming req see
system.mem_ctrls0.rdQLenPdf::4                      0                       # What read queue length does an incoming req see
system.mem_ctrls0.rdQLenPdf::5                      0                       # What read queue length does an incoming req see
system.mem_ctrls0.rdQLenPdf::6                      0                       # What read queue length does an incoming req see
system.mem_ctrls0.rdQLenPdf::7                      0                       # What read queue length does an incoming req see
system.mem_ctrls0.rdQLenPdf::8                      0                       # What read queue length does an incoming req see
system.mem_ctrls0.rdQLenPdf::9                      0                       # What read queue length does an incoming req see
system.mem_ctrls0.rdQLenPdf::10                     0                       # What read queue length does an incoming req see
system.mem_ctrls0.rdQLenPdf::11                     0                       # What read queue length does an incoming req see
system.mem_ctrls0.rdQLenPdf::12                     0                       # What read queue length does an incoming req see
system.mem_ctrls0.rdQLenPdf::13                     0                       # What read queue length does an incoming req see
system.mem_ctrls0.rdQLenPdf::14                     0                       # What read queue length does an incoming req see
system.mem_ctrls0.rdQLenPdf::15                     0                       # What read queue length does an incoming req see
system.mem_ctrls0.rdQLenPdf::16                     0                       # What read queue length does an incoming req see
system.mem_ctrls0.rdQLenPdf::17                     0                       # What read queue length does an incoming req see
system.mem_ctrls0.rdQLenPdf::18                     0                       # What read queue length does an incoming req see
system.mem_ctrls0.rdQLenPdf::19                     0                       # What read queue length does an incoming req see
system.mem_ctrls0.rdQLenPdf::20                     0                       # What read queue length does an incoming req see
system.mem_ctrls0.rdQLenPdf::21                     0                       # What read queue length does an incoming req see
system.mem_ctrls0.rdQLenPdf::22                     0                       # What read queue length does an incoming req see
system.mem_ctrls0.rdQLenPdf::23                     0                       # What read queue length does an incoming req see
system.mem_ctrls0.rdQLenPdf::24                     0                       # What read queue length does an incoming req see
system.mem_ctrls0.rdQLenPdf::25                     0                       # What read queue length does an incoming req see
system.mem_ctrls0.rdQLenPdf::26                     0                       # What read queue length does an incoming req see
system.mem_ctrls0.rdQLenPdf::27                     0                       # What read queue length does an incoming req see
system.mem_ctrls0.rdQLenPdf::28                     0                       # What read queue length does an incoming req see
system.mem_ctrls0.rdQLenPdf::29                     0                       # What read queue length does an incoming req see
system.mem_ctrls0.rdQLenPdf::30                     0                       # What read queue length does an incoming req see
system.mem_ctrls0.rdQLenPdf::31                     0                       # What read queue length does an incoming req see
system.mem_ctrls0.wrQLenPdf::0                      0                       # What write queue length does an incoming req see
system.mem_ctrls0.wrQLenPdf::1                      0                       # What write queue length does an incoming req see
system.mem_ctrls0.wrQLenPdf::2                      0                       # What write queue length does an incoming req see
system.mem_ctrls0.wrQLenPdf::3                      0                       # What write queue length does an incoming req see
system.mem_ctrls0.wrQLenPdf::4                      0                       # What write queue length does an incoming req see
system.mem_ctrls0.wrQLenPdf::5                      0                       # What write queue length does an incoming req see
system.mem_ctrls0.wrQLenPdf::6                      0                       # What write queue length does an incoming req see
system.mem_ctrls0.wrQLenPdf::7                      0                       # What write queue length does an incoming req see
system.mem_ctrls0.wrQLenPdf::8                      0                       # What write queue length does an incoming req see
system.mem_ctrls0.wrQLenPdf::9                      0                       # What write queue length does an incoming req see
system.mem_ctrls0.wrQLenPdf::10                     1                       # What write queue length does an incoming req see
system.mem_ctrls0.wrQLenPdf::11                     1                       # What write queue length does an incoming req see
system.mem_ctrls0.wrQLenPdf::12                     1                       # What write queue length does an incoming req see
system.mem_ctrls0.wrQLenPdf::13                     1                       # What write queue length does an incoming req see
system.mem_ctrls0.wrQLenPdf::14                     1                       # What write queue length does an incoming req see
system.mem_ctrls0.wrQLenPdf::15                    55                       # What write queue length does an incoming req see
system.mem_ctrls0.wrQLenPdf::16                    59                       # What write queue length does an incoming req see
system.mem_ctrls0.wrQLenPdf::17                    72                       # What write queue length does an incoming req see
system.mem_ctrls0.wrQLenPdf::18                    71                       # What write queue length does an incoming req see
system.mem_ctrls0.wrQLenPdf::19                    89                       # What write queue length does an incoming req see
system.mem_ctrls0.wrQLenPdf::20                    72                       # What write queue length does an incoming req see
system.mem_ctrls0.wrQLenPdf::21                    83                       # What write queue length does an incoming req see
system.mem_ctrls0.wrQLenPdf::22                    84                       # What write queue length does an incoming req see
system.mem_ctrls0.wrQLenPdf::23                    70                       # What write queue length does an incoming req see
system.mem_ctrls0.wrQLenPdf::24                    69                       # What write queue length does an incoming req see
system.mem_ctrls0.wrQLenPdf::25                    69                       # What write queue length does an incoming req see
system.mem_ctrls0.wrQLenPdf::26                    69                       # What write queue length does an incoming req see
system.mem_ctrls0.wrQLenPdf::27                    69                       # What write queue length does an incoming req see
system.mem_ctrls0.wrQLenPdf::28                    69                       # What write queue length does an incoming req see
system.mem_ctrls0.wrQLenPdf::29                    68                       # What write queue length does an incoming req see
system.mem_ctrls0.wrQLenPdf::30                    69                       # What write queue length does an incoming req see
system.mem_ctrls0.wrQLenPdf::31                    66                       # What write queue length does an incoming req see
system.mem_ctrls0.wrQLenPdf::32                    66                       # What write queue length does an incoming req see
system.mem_ctrls0.wrQLenPdf::33                     1                       # What write queue length does an incoming req see
system.mem_ctrls0.wrQLenPdf::34                     1                       # What write queue length does an incoming req see
system.mem_ctrls0.wrQLenPdf::35                     1                       # What write queue length does an incoming req see
system.mem_ctrls0.wrQLenPdf::36                     1                       # What write queue length does an incoming req see
system.mem_ctrls0.wrQLenPdf::37                     1                       # What write queue length does an incoming req see
system.mem_ctrls0.wrQLenPdf::38                     0                       # What write queue length does an incoming req see
system.mem_ctrls0.wrQLenPdf::39                     0                       # What write queue length does an incoming req see
system.mem_ctrls0.wrQLenPdf::40                     0                       # What write queue length does an incoming req see
system.mem_ctrls0.wrQLenPdf::41                     0                       # What write queue length does an incoming req see
system.mem_ctrls0.wrQLenPdf::42                     0                       # What write queue length does an incoming req see
system.mem_ctrls0.wrQLenPdf::43                     0                       # What write queue length does an incoming req see
system.mem_ctrls0.wrQLenPdf::44                     0                       # What write queue length does an incoming req see
system.mem_ctrls0.wrQLenPdf::45                     0                       # What write queue length does an incoming req see
system.mem_ctrls0.wrQLenPdf::46                     0                       # What write queue length does an incoming req see
system.mem_ctrls0.wrQLenPdf::47                     0                       # What write queue length does an incoming req see
system.mem_ctrls0.wrQLenPdf::48                     0                       # What write queue length does an incoming req see
system.mem_ctrls0.wrQLenPdf::49                     0                       # What write queue length does an incoming req see
system.mem_ctrls0.wrQLenPdf::50                     0                       # What write queue length does an incoming req see
system.mem_ctrls0.wrQLenPdf::51                     0                       # What write queue length does an incoming req see
system.mem_ctrls0.wrQLenPdf::52                     0                       # What write queue length does an incoming req see
system.mem_ctrls0.wrQLenPdf::53                     0                       # What write queue length does an incoming req see
system.mem_ctrls0.wrQLenPdf::54                     0                       # What write queue length does an incoming req see
system.mem_ctrls0.wrQLenPdf::55                     0                       # What write queue length does an incoming req see
system.mem_ctrls0.wrQLenPdf::56                     0                       # What write queue length does an incoming req see
system.mem_ctrls0.wrQLenPdf::57                     0                       # What write queue length does an incoming req see
system.mem_ctrls0.wrQLenPdf::58                     0                       # What write queue length does an incoming req see
system.mem_ctrls0.wrQLenPdf::59                     0                       # What write queue length does an incoming req see
system.mem_ctrls0.wrQLenPdf::60                     0                       # What write queue length does an incoming req see
system.mem_ctrls0.wrQLenPdf::61                     0                       # What write queue length does an incoming req see
system.mem_ctrls0.wrQLenPdf::62                     0                       # What write queue length does an incoming req see
system.mem_ctrls0.wrQLenPdf::63                     0                       # What write queue length does an incoming req see
system.mem_ctrls0.bytesPerActivate::samples         1745                       # Bytes accessed per row activation
system.mem_ctrls0.bytesPerActivate::mean   173.771920                       # Bytes accessed per row activation
system.mem_ctrls0.bytesPerActivate::gmean   113.136106                       # Bytes accessed per row activation
system.mem_ctrls0.bytesPerActivate::stdev   226.260923                       # Bytes accessed per row activation
system.mem_ctrls0.bytesPerActivate::0-127         1010     57.88%     57.88% # Bytes accessed per row activation
system.mem_ctrls0.bytesPerActivate::128-255          413     23.67%     81.55% # Bytes accessed per row activation
system.mem_ctrls0.bytesPerActivate::256-383          160      9.17%     90.72% # Bytes accessed per row activation
system.mem_ctrls0.bytesPerActivate::384-511           37      2.12%     92.84% # Bytes accessed per row activation
system.mem_ctrls0.bytesPerActivate::512-639           14      0.80%     93.64% # Bytes accessed per row activation
system.mem_ctrls0.bytesPerActivate::640-767           12      0.69%     94.33% # Bytes accessed per row activation
system.mem_ctrls0.bytesPerActivate::768-895            9      0.52%     94.84% # Bytes accessed per row activation
system.mem_ctrls0.bytesPerActivate::896-1023            6      0.34%     95.19% # Bytes accessed per row activation
system.mem_ctrls0.bytesPerActivate::1024-1151           84      4.81%    100.00% # Bytes accessed per row activation
system.mem_ctrls0.bytesPerActivate::total         1745                       # Bytes accessed per row activation
system.mem_ctrls0.rdPerTurnAround::samples           66                       # Reads before turning the bus around for writes
system.mem_ctrls0.rdPerTurnAround::mean    164.924242                       # Reads before turning the bus around for writes
system.mem_ctrls0.rdPerTurnAround::stdev   987.472505                       # Reads before turning the bus around for writes
system.mem_ctrls0.rdPerTurnAround::0-255           60     90.91%     90.91% # Reads before turning the bus around for writes
system.mem_ctrls0.rdPerTurnAround::256-511            4      6.06%     96.97% # Reads before turning the bus around for writes
system.mem_ctrls0.rdPerTurnAround::512-767            1      1.52%     98.48% # Reads before turning the bus around for writes
system.mem_ctrls0.rdPerTurnAround::7936-8191            1      1.52%    100.00% # Reads before turning the bus around for writes
system.mem_ctrls0.rdPerTurnAround::total           66                       # Reads before turning the bus around for writes
system.mem_ctrls0.wrPerTurnAround::samples           66                       # Writes before turning the bus around for reads
system.mem_ctrls0.wrPerTurnAround::mean     19.272727                       # Writes before turning the bus around for reads
system.mem_ctrls0.wrPerTurnAround::gmean    19.132633                       # Writes before turning the bus around for reads
system.mem_ctrls0.wrPerTurnAround::stdev     2.465425                       # Writes before turning the bus around for reads
system.mem_ctrls0.wrPerTurnAround::16              12     18.18%     18.18% # Writes before turning the bus around for reads
system.mem_ctrls0.wrPerTurnAround::18               3      4.55%     22.73% # Writes before turning the bus around for reads
system.mem_ctrls0.wrPerTurnAround::19              24     36.36%     59.09% # Writes before turning the bus around for reads
system.mem_ctrls0.wrPerTurnAround::20              19     28.79%     87.88% # Writes before turning the bus around for reads
system.mem_ctrls0.wrPerTurnAround::21               4      6.06%     93.94% # Writes before turning the bus around for reads
system.mem_ctrls0.wrPerTurnAround::22               1      1.52%     95.45% # Writes before turning the bus around for reads
system.mem_ctrls0.wrPerTurnAround::27               1      1.52%     96.97% # Writes before turning the bus around for reads
system.mem_ctrls0.wrPerTurnAround::28               1      1.52%     98.48% # Writes before turning the bus around for reads
system.mem_ctrls0.wrPerTurnAround::29               1      1.52%    100.00% # Writes before turning the bus around for reads
system.mem_ctrls0.wrPerTurnAround::total           66                       # Writes before turning the bus around for reads
system.mem_ctrls0.totQLat                    36132499                       # Total ticks spent queuing
system.mem_ctrls0.totMemAccLat              101119999                       # Total ticks spent from burst creation until serviced by the DRAM
system.mem_ctrls0.totBusLat                  17330000                       # Total ticks spent in databus transfers
system.mem_ctrls0.avgQLat                    10424.84                       # Average queueing delay per DRAM burst
system.mem_ctrls0.avgBusLat                   5000.00                       # Average bus latency per DRAM burst
system.mem_ctrls0.avgMemAccLat               29174.84                       # Average memory access latency per DRAM burst
system.mem_ctrls0.avgRdBW                        0.48                       # Average DRAM read bandwidth in MiByte/s
system.mem_ctrls0.avgWrBW                        0.18                       # Average achieved write bandwidth in MiByte/s
system.mem_ctrls0.avgRdBWSys                     0.48                       # Average system read bandwidth in MiByte/s
system.mem_ctrls0.avgWrBWSys                     0.18                       # Average system write bandwidth in MiByte/s
system.mem_ctrls0.peakBW                     12800.00                       # Theoretical peak bandwidth in MiByte/s
system.mem_ctrls0.busUtil                        0.01                       # Data bus utilization in percentage
system.mem_ctrls0.busUtilRead                    0.00                       # Data bus utilization in percentage for reads
system.mem_ctrls0.busUtilWrite                   0.00                       # Data bus utilization in percentage for writes
system.mem_ctrls0.avgRdQLen                      1.00                       # Average read queue length when enqueuing
system.mem_ctrls0.avgWrQLen                     25.36                       # Average write queue length when enqueuing
system.mem_ctrls0.readRowHits                    1911                       # Number of row buffer hits during reads
system.mem_ctrls0.writeRowHits                   1082                       # Number of row buffer hits during writes
system.mem_ctrls0.readRowHitRate                55.14                       # Row buffer hit rate for reads
system.mem_ctrls0.writeRowHitRate               84.60                       # Row buffer hit rate for writes
system.mem_ctrls0.avgGap                  97167433.04                       # Average gap between requests
system.mem_ctrls0.pageHitRate                   63.08                       # Row buffer hit rate, read and write combined
system.mem_ctrls0_0.actEnergy                11763360                       # Energy for activate commands per rank (pJ)
system.mem_ctrls0_0.preEnergy                 6418500                       # Energy for precharge commands per rank (pJ)
system.mem_ctrls0_0.readEnergy               33930000                       # Energy for read commands per rank (pJ)
system.mem_ctrls0_0.writeEnergy               3965760                       # Energy for write commands per rank (pJ)
system.mem_ctrls0_0.refreshEnergy         30452064240                       # Energy for refresh commands per rank (pJ)
system.mem_ctrls0_0.actBackEnergy         11709302805                       # Energy for active background per rank (pJ)
system.mem_ctrls0_0.preBackEnergy        269468556000                       # Energy for precharge background per rank (pJ)
system.mem_ctrls0_0.totalEnergy          311686000665                       # Total energy per rank (pJ)
system.mem_ctrls0_0.averagePower           668.519641                       # Core power per rank (mW)
system.mem_ctrls0_0.memoryStateTime::IDLE 446547203500                       # Time in different power states
system.mem_ctrls0_0.memoryStateTime::REF  15457520000                       # Time in different power states
system.mem_ctrls0_0.memoryStateTime::PRE_PDN            0                       # Time in different power states
system.mem_ctrls0_0.memoryStateTime::ACT    900866000                       # Time in different power states
system.mem_ctrls0_0.memoryStateTime::ACT_PDN            0                       # Time in different power states
system.mem_ctrls0_1.actEnergy                19293120                       # Energy for activate commands per rank (pJ)
system.mem_ctrls0_1.preEnergy                10527000                       # Energy for precharge commands per rank (pJ)
system.mem_ctrls0_1.readEnergy               50988600                       # Energy for read commands per rank (pJ)
system.mem_ctrls0_1.writeEnergy               4276800                       # Energy for write commands per rank (pJ)
system.mem_ctrls0_1.refreshEnergy         30452064240                       # Energy for refresh commands per rank (pJ)
system.mem_ctrls0_1.actBackEnergy         12761794980                       # Energy for active background per rank (pJ)
system.mem_ctrls0_1.preBackEnergy        268545317250                       # Energy for precharge background per rank (pJ)
system.mem_ctrls0_1.totalEnergy          311844261990                       # Total energy per rank (pJ)
system.mem_ctrls0_1.averagePower           668.859088                       # Core power per rank (mW)
system.mem_ctrls0_1.memoryStateTime::IDLE 445500697500                       # Time in different power states
system.mem_ctrls0_1.memoryStateTime::REF  15457520000                       # Time in different power states
system.mem_ctrls0_1.memoryStateTime::PRE_PDN            0                       # Time in different power states
system.mem_ctrls0_1.memoryStateTime::ACT   1949917500                       # Time in different power states
system.mem_ctrls0_1.memoryStateTime::ACT_PDN            0                       # Time in different power states
system.mem_ctrls1.bytes_read::ruby.dir_cntrl1       222848                       # Number of bytes read from this memory
system.mem_ctrls1.bytes_read::total            222848                       # Number of bytes read from this memory
system.mem_ctrls1.bytes_written::ruby.dir_cntrl1        81024                       # Number of bytes written to this memory
system.mem_ctrls1.bytes_written::total          81024                       # Number of bytes written to this memory
system.mem_ctrls1.num_reads::ruby.dir_cntrl1         3482                       # Number of read requests responded to by this memory
system.mem_ctrls1.num_reads::total               3482                       # Number of read requests responded to by this memory
system.mem_ctrls1.num_writes::ruby.dir_cntrl1         1266                       # Number of write requests responded to by this memory
system.mem_ctrls1.num_writes::total              1266                       # Number of write requests responded to by this memory
system.mem_ctrls1.bw_read::ruby.dir_cntrl1       481411                       # Total read bandwidth from this memory (bytes/s)
system.mem_ctrls1.bw_read::total               481411                       # Total read bandwidth from this memory (bytes/s)
system.mem_ctrls1.bw_write::ruby.dir_cntrl1       175034                       # Write bandwidth from this memory (bytes/s)
system.mem_ctrls1.bw_write::total              175034                       # Write bandwidth from this memory (bytes/s)
system.mem_ctrls1.bw_total::ruby.dir_cntrl1       656445                       # Total bandwidth to/from this memory (bytes/s)
system.mem_ctrls1.bw_total::total              656445                       # Total bandwidth to/from this memory (bytes/s)
system.mem_ctrls1.readReqs                       3482                       # Number of read requests accepted
system.mem_ctrls1.writeReqs                      1266                       # Number of write requests accepted
system.mem_ctrls1.readBursts                     3482                       # Number of DRAM read bursts, including those serviced by the write queue
system.mem_ctrls1.writeBursts                    1266                       # Number of DRAM write bursts, including those merged in the write queue
system.mem_ctrls1.bytesReadDRAM                220800                       # Total number of bytes read from DRAM
system.mem_ctrls1.bytesReadWrQ                   2048                       # Total number of bytes read from write queue
system.mem_ctrls1.bytesWritten                  80256                       # Total number of bytes written to DRAM
system.mem_ctrls1.bytesReadSys                 222848                       # Total read bytes from the system interface side
system.mem_ctrls1.bytesWrittenSys               81024                       # Total written bytes from the system interface side
system.mem_ctrls1.servicedByWrQ                    32                       # Number of DRAM read bursts serviced by the write queue
system.mem_ctrls1.mergedWrBursts                    0                       # Number of DRAM write bursts merged with an existing one
system.mem_ctrls1.neitherReadNorWriteReqs            0                       # Number of requests that are neither read nor write
system.mem_ctrls1.perBankRdBursts::0              108                       # Per bank write bursts
system.mem_ctrls1.perBankRdBursts::1              179                       # Per bank write bursts
system.mem_ctrls1.perBankRdBursts::2              219                       # Per bank write bursts
system.mem_ctrls1.perBankRdBursts::3              220                       # Per bank write bursts
system.mem_ctrls1.perBankRdBursts::4               95                       # Per bank write bursts
system.mem_ctrls1.perBankRdBursts::5              238                       # Per bank write bursts
system.mem_ctrls1.perBankRdBursts::6              127                       # Per bank write bursts
system.mem_ctrls1.perBankRdBursts::7              112                       # Per bank write bursts
system.mem_ctrls1.perBankRdBursts::8              160                       # Per bank write bursts
system.mem_ctrls1.perBankRdBursts::9              252                       # Per bank write bursts
system.mem_ctrls1.perBankRdBursts::10             322                       # Per bank write bursts
system.mem_ctrls1.perBankRdBursts::11             323                       # Per bank write bursts
system.mem_ctrls1.perBankRdBursts::12             210                       # Per bank write bursts
system.mem_ctrls1.perBankRdBursts::13             288                       # Per bank write bursts
system.mem_ctrls1.perBankRdBursts::14             253                       # Per bank write bursts
system.mem_ctrls1.perBankRdBursts::15             344                       # Per bank write bursts
system.mem_ctrls1.perBankWrBursts::0               67                       # Per bank write bursts
system.mem_ctrls1.perBankWrBursts::1              161                       # Per bank write bursts
system.mem_ctrls1.perBankWrBursts::2              133                       # Per bank write bursts
system.mem_ctrls1.perBankWrBursts::3              174                       # Per bank write bursts
system.mem_ctrls1.perBankWrBursts::4               40                       # Per bank write bursts
system.mem_ctrls1.perBankWrBursts::5                0                       # Per bank write bursts
system.mem_ctrls1.perBankWrBursts::6                0                       # Per bank write bursts
system.mem_ctrls1.perBankWrBursts::7               32                       # Per bank write bursts
system.mem_ctrls1.perBankWrBursts::8               79                       # Per bank write bursts
system.mem_ctrls1.perBankWrBursts::9               28                       # Per bank write bursts
system.mem_ctrls1.perBankWrBursts::10              56                       # Per bank write bursts
system.mem_ctrls1.perBankWrBursts::11               7                       # Per bank write bursts
system.mem_ctrls1.perBankWrBursts::12             160                       # Per bank write bursts
system.mem_ctrls1.perBankWrBursts::13             165                       # Per bank write bursts
system.mem_ctrls1.perBankWrBursts::14              14                       # Per bank write bursts
system.mem_ctrls1.perBankWrBursts::15             138                       # Per bank write bursts
system.mem_ctrls1.numRdRetry                        0                       # Number of times read queue was full causing retry
system.mem_ctrls1.numWrRetry                        0                       # Number of times write queue was full causing retry
system.mem_ctrls1.totGap                 462905414500                       # Total gap between requests
system.mem_ctrls1.readPktSize::0                    0                       # Read request sizes (log2)
system.mem_ctrls1.readPktSize::1                    0                       # Read request sizes (log2)
system.mem_ctrls1.readPktSize::2                    0                       # Read request sizes (log2)
system.mem_ctrls1.readPktSize::3                    0                       # Read request sizes (log2)
system.mem_ctrls1.readPktSize::4                    0                       # Read request sizes (log2)
system.mem_ctrls1.readPktSize::5                    0                       # Read request sizes (log2)
system.mem_ctrls1.readPktSize::6                 3482                       # Read request sizes (log2)
system.mem_ctrls1.writePktSize::0                   0                       # Write request sizes (log2)
system.mem_ctrls1.writePktSize::1                   0                       # Write request sizes (log2)
system.mem_ctrls1.writePktSize::2                   0                       # Write request sizes (log2)
system.mem_ctrls1.writePktSize::3                   0                       # Write request sizes (log2)
system.mem_ctrls1.writePktSize::4                   0                       # Write request sizes (log2)
system.mem_ctrls1.writePktSize::5                   0                       # Write request sizes (log2)
system.mem_ctrls1.writePktSize::6                1266                       # Write request sizes (log2)
system.mem_ctrls1.rdQLenPdf::0                   3387                       # What read queue length does an incoming req see
system.mem_ctrls1.rdQLenPdf::1                     63                       # What read queue length does an incoming req see
system.mem_ctrls1.rdQLenPdf::2                      0                       # What read queue length does an incoming req see
system.mem_ctrls1.rdQLenPdf::3                      0                       # What read queue length does an incoming req see
system.mem_ctrls1.rdQLenPdf::4                      0                       # What read queue length does an incoming req see
system.mem_ctrls1.rdQLenPdf::5                      0                       # What read queue length does an incoming req see
system.mem_ctrls1.rdQLenPdf::6                      0                       # What read queue length does an incoming req see
system.mem_ctrls1.rdQLenPdf::7                      0                       # What read queue length does an incoming req see
system.mem_ctrls1.rdQLenPdf::8                      0                       # What read queue length does an incoming req see
system.mem_ctrls1.rdQLenPdf::9                      0                       # What read queue length does an incoming req see
system.mem_ctrls1.rdQLenPdf::10                     0                       # What read queue length does an incoming req see
system.mem_ctrls1.rdQLenPdf::11                     0                       # What read queue length does an incoming req see
system.mem_ctrls1.rdQLenPdf::12                     0                       # What read queue length does an incoming req see
system.mem_ctrls1.rdQLenPdf::13                     0                       # What read queue length does an incoming req see
system.mem_ctrls1.rdQLenPdf::14                     0                       # What read queue length does an incoming req see
system.mem_ctrls1.rdQLenPdf::15                     0                       # What read queue length does an incoming req see
system.mem_ctrls1.rdQLenPdf::16                     0                       # What read queue length does an incoming req see
system.mem_ctrls1.rdQLenPdf::17                     0                       # What read queue length does an incoming req see
system.mem_ctrls1.rdQLenPdf::18                     0                       # What read queue length does an incoming req see
system.mem_ctrls1.rdQLenPdf::19                     0                       # What read queue length does an incoming req see
system.mem_ctrls1.rdQLenPdf::20                     0                       # What read queue length does an incoming req see
system.mem_ctrls1.rdQLenPdf::21                     0                       # What read queue length does an incoming req see
system.mem_ctrls1.rdQLenPdf::22                     0                       # What read queue length does an incoming req see
system.mem_ctrls1.rdQLenPdf::23                     0                       # What read queue length does an incoming req see
system.mem_ctrls1.rdQLenPdf::24                     0                       # What read queue length does an incoming req see
system.mem_ctrls1.rdQLenPdf::25                     0                       # What read queue length does an incoming req see
system.mem_ctrls1.rdQLenPdf::26                     0                       # What read queue length does an incoming req see
system.mem_ctrls1.rdQLenPdf::27                     0                       # What read queue length does an incoming req see
system.mem_ctrls1.rdQLenPdf::28                     0                       # What read queue length does an incoming req see
system.mem_ctrls1.rdQLenPdf::29                     0                       # What read queue length does an incoming req see
system.mem_ctrls1.rdQLenPdf::30                     0                       # What read queue length does an incoming req see
system.mem_ctrls1.rdQLenPdf::31                     0                       # What read queue length does an incoming req see
system.mem_ctrls1.wrQLenPdf::0                      0                       # What write queue length does an incoming req see
system.mem_ctrls1.wrQLenPdf::1                      0                       # What write queue length does an incoming req see
system.mem_ctrls1.wrQLenPdf::2                      0                       # What write queue length does an incoming req see
system.mem_ctrls1.wrQLenPdf::3                      0                       # What write queue length does an incoming req see
system.mem_ctrls1.wrQLenPdf::4                      0                       # What write queue length does an incoming req see
system.mem_ctrls1.wrQLenPdf::5                      0                       # What write queue length does an incoming req see
system.mem_ctrls1.wrQLenPdf::6                      0                       # What write queue length does an incoming req see
system.mem_ctrls1.wrQLenPdf::7                      0                       # What write queue length does an incoming req see
system.mem_ctrls1.wrQLenPdf::8                      0                       # What write queue length does an incoming req see
system.mem_ctrls1.wrQLenPdf::9                      0                       # What write queue length does an incoming req see
system.mem_ctrls1.wrQLenPdf::10                     0                       # What write queue length does an incoming req see
system.mem_ctrls1.wrQLenPdf::11                     0                       # What write queue length does an incoming req see
system.mem_ctrls1.wrQLenPdf::12                     0                       # What write queue length does an incoming req see
system.mem_ctrls1.wrQLenPdf::13                     0                       # What write queue length does an incoming req see
system.mem_ctrls1.wrQLenPdf::14                     0                       # What write queue length does an incoming req see
system.mem_ctrls1.wrQLenPdf::15                    54                       # What write queue length does an incoming req see
system.mem_ctrls1.wrQLenPdf::16                    56                       # What write queue length does an incoming req see
system.mem_ctrls1.wrQLenPdf::17                    71                       # What write queue length does an incoming req see
system.mem_ctrls1.wrQLenPdf::18                    71                       # What write queue length does an incoming req see
system.mem_ctrls1.wrQLenPdf::19                    87                       # What write queue length does an incoming req see
system.mem_ctrls1.wrQLenPdf::20                    72                       # What write queue length does an incoming req see
system.mem_ctrls1.wrQLenPdf::21                    85                       # What write queue length does an incoming req see
system.mem_ctrls1.wrQLenPdf::22                    84                       # What write queue length does an incoming req see
system.mem_ctrls1.wrQLenPdf::23                    68                       # What write queue length does an incoming req see
system.mem_ctrls1.wrQLenPdf::24                    70                       # What write queue length does an incoming req see
system.mem_ctrls1.wrQLenPdf::25                    70                       # What write queue length does an incoming req see
system.mem_ctrls1.wrQLenPdf::26                    68                       # What write queue length does an incoming req see
system.mem_ctrls1.wrQLenPdf::27                    68                       # What write queue length does an incoming req see
system.mem_ctrls1.wrQLenPdf::28                    69                       # What write queue length does an incoming req see
system.mem_ctrls1.wrQLenPdf::29                    67                       # What write queue length does an incoming req see
system.mem_ctrls1.wrQLenPdf::30                    66                       # What write queue length does an incoming req see
system.mem_ctrls1.wrQLenPdf::31                    66                       # What write queue length does an incoming req see
system.mem_ctrls1.wrQLenPdf::32                    67                       # What write queue length does an incoming req see
system.mem_ctrls1.wrQLenPdf::33                     2                       # What write queue length does an incoming req see
system.mem_ctrls1.wrQLenPdf::34                     2                       # What write queue length does an incoming req see
system.mem_ctrls1.wrQLenPdf::35                     1                       # What write queue length does an incoming req see
system.mem_ctrls1.wrQLenPdf::36                     1                       # What write queue length does an incoming req see
system.mem_ctrls1.wrQLenPdf::37                     1                       # What write queue length does an incoming req see
system.mem_ctrls1.wrQLenPdf::38                     0                       # What write queue length does an incoming req see
system.mem_ctrls1.wrQLenPdf::39                     0                       # What write queue length does an incoming req see
system.mem_ctrls1.wrQLenPdf::40                     0                       # What write queue length does an incoming req see
system.mem_ctrls1.wrQLenPdf::41                     0                       # What write queue length does an incoming req see
system.mem_ctrls1.wrQLenPdf::42                     0                       # What write queue length does an incoming req see
system.mem_ctrls1.wrQLenPdf::43                     0                       # What write queue length does an incoming req see
system.mem_ctrls1.wrQLenPdf::44                     0                       # What write queue length does an incoming req see
system.mem_ctrls1.wrQLenPdf::45                     0                       # What write queue length does an incoming req see
system.mem_ctrls1.wrQLenPdf::46                     0                       # What write queue length does an incoming req see
system.mem_ctrls1.wrQLenPdf::47                     0                       # What write queue length does an incoming req see
system.mem_ctrls1.wrQLenPdf::48                     0                       # What write queue length does an incoming req see
system.mem_ctrls1.wrQLenPdf::49                     0                       # What write queue length does an incoming req see
system.mem_ctrls1.wrQLenPdf::50                     0                       # What write queue length does an incoming req see
system.mem_ctrls1.wrQLenPdf::51                     0                       # What write queue length does an incoming req see
system.mem_ctrls1.wrQLenPdf::52                     0                       # What write queue length does an incoming req see
system.mem_ctrls1.wrQLenPdf::53                     0                       # What write queue length does an incoming req see
system.mem_ctrls1.wrQLenPdf::54                     0                       # What write queue length does an incoming req see
system.mem_ctrls1.wrQLenPdf::55                     0                       # What write queue length does an incoming req see
system.mem_ctrls1.wrQLenPdf::56                     0                       # What write queue length does an incoming req see
system.mem_ctrls1.wrQLenPdf::57                     0                       # What write queue length does an incoming req see
system.mem_ctrls1.wrQLenPdf::58                     0                       # What write queue length does an incoming req see
system.mem_ctrls1.wrQLenPdf::59                     0                       # What write queue length does an incoming req see
system.mem_ctrls1.wrQLenPdf::60                     0                       # What write queue length does an incoming req see
system.mem_ctrls1.wrQLenPdf::61                     0                       # What write queue length does an incoming req see
system.mem_ctrls1.wrQLenPdf::62                     0                       # What write queue length does an incoming req see
system.mem_ctrls1.wrQLenPdf::63                     0                       # What write queue length does an incoming req see
system.mem_ctrls1.bytesPerActivate::samples         1763                       # Bytes accessed per row activation
system.mem_ctrls1.bytesPerActivate::mean   170.836075                       # Bytes accessed per row activation
system.mem_ctrls1.bytesPerActivate::gmean   110.767902                       # Bytes accessed per row activation
system.mem_ctrls1.bytesPerActivate::stdev   226.988131                       # Bytes accessed per row activation
system.mem_ctrls1.bytesPerActivate::0-127         1046     59.33%     59.33% # Bytes accessed per row activation
system.mem_ctrls1.bytesPerActivate::128-255          409     23.20%     82.53% # Bytes accessed per row activation
system.mem_ctrls1.bytesPerActivate::256-383          152      8.62%     91.15% # Bytes accessed per row activation
system.mem_ctrls1.bytesPerActivate::384-511           30      1.70%     92.85% # Bytes accessed per row activation
system.mem_ctrls1.bytesPerActivate::512-639           10      0.57%     93.42% # Bytes accessed per row activation
system.mem_ctrls1.bytesPerActivate::640-767           13      0.74%     94.16% # Bytes accessed per row activation
system.mem_ctrls1.bytesPerActivate::768-895            9      0.51%     94.67% # Bytes accessed per row activation
system.mem_ctrls1.bytesPerActivate::896-1023           12      0.68%     95.35% # Bytes accessed per row activation
system.mem_ctrls1.bytesPerActivate::1024-1151           82      4.65%    100.00% # Bytes accessed per row activation
system.mem_ctrls1.bytesPerActivate::total         1763                       # Bytes accessed per row activation
system.mem_ctrls1.rdPerTurnAround::samples           66                       # Reads before turning the bus around for writes
system.mem_ctrls1.rdPerTurnAround::mean    164.500000                       # Reads before turning the bus around for writes
system.mem_ctrls1.rdPerTurnAround::stdev   991.278215                       # Reads before turning the bus around for writes
system.mem_ctrls1.rdPerTurnAround::0-255           61     92.42%     92.42% # Reads before turning the bus around for writes
system.mem_ctrls1.rdPerTurnAround::256-511            3      4.55%     96.97% # Reads before turning the bus around for writes
system.mem_ctrls1.rdPerTurnAround::768-1023            1      1.52%     98.48% # Reads before turning the bus around for writes
system.mem_ctrls1.rdPerTurnAround::7936-8191            1      1.52%    100.00% # Reads before turning the bus around for writes
system.mem_ctrls1.rdPerTurnAround::total           66                       # Reads before turning the bus around for writes
system.mem_ctrls1.wrPerTurnAround::samples           66                       # Writes before turning the bus around for reads
system.mem_ctrls1.wrPerTurnAround::mean            19                       # Writes before turning the bus around for reads
system.mem_ctrls1.wrPerTurnAround::gmean    18.910894                       # Writes before turning the bus around for reads
system.mem_ctrls1.wrPerTurnAround::stdev     1.872883                       # Writes before turning the bus around for reads
system.mem_ctrls1.wrPerTurnAround::16              12     18.18%     18.18% # Writes before turning the bus around for reads
system.mem_ctrls1.wrPerTurnAround::18               4      6.06%     24.24% # Writes before turning the bus around for reads
system.mem_ctrls1.wrPerTurnAround::19              25     37.88%     62.12% # Writes before turning the bus around for reads
system.mem_ctrls1.wrPerTurnAround::20              18     27.27%     89.39% # Writes before turning the bus around for reads
system.mem_ctrls1.wrPerTurnAround::21               4      6.06%     95.45% # Writes before turning the bus around for reads
system.mem_ctrls1.wrPerTurnAround::22               2      3.03%     98.48% # Writes before turning the bus around for reads
system.mem_ctrls1.wrPerTurnAround::27               1      1.52%    100.00% # Writes before turning the bus around for reads
system.mem_ctrls1.wrPerTurnAround::total           66                       # Writes before turning the bus around for reads
system.mem_ctrls1.totQLat                    36528749                       # Total ticks spent queuing
system.mem_ctrls1.totMemAccLat              101216249                       # Total ticks spent from burst creation until serviced by the DRAM
system.mem_ctrls1.totBusLat                  17250000                       # Total ticks spent in databus transfers
system.mem_ctrls1.avgQLat                    10588.04                       # Average queueing delay per DRAM burst
system.mem_ctrls1.avgBusLat                   5000.00                       # Average bus latency per DRAM burst
system.mem_ctrls1.avgMemAccLat               29338.04                       # Average memory access latency per DRAM burst
system.mem_ctrls1.avgRdBW                        0.48                       # Average DRAM read bandwidth in MiByte/s
system.mem_ctrls1.avgWrBW                        0.17                       # Average achieved write bandwidth in MiByte/s
system.mem_ctrls1.avgRdBWSys                     0.48                       # Average system read bandwidth in MiByte/s
system.mem_ctrls1.avgWrBWSys                     0.18                       # Average system write bandwidth in MiByte/s
system.mem_ctrls1.peakBW                     12800.00                       # Theoretical peak bandwidth in MiByte/s
system.mem_ctrls1.busUtil                        0.01                       # Data bus utilization in percentage
system.mem_ctrls1.busUtilRead                    0.00                       # Data bus utilization in percentage for reads
system.mem_ctrls1.busUtilWrite                   0.00                       # Data bus utilization in percentage for writes
system.mem_ctrls1.avgRdQLen                      1.00                       # Average read queue length when enqueuing
system.mem_ctrls1.avgWrQLen                     23.02                       # Average write queue length when enqueuing
system.mem_ctrls1.readRowHits                    1879                       # Number of row buffer hits during reads
system.mem_ctrls1.writeRowHits                   1062                       # Number of row buffer hits during writes
system.mem_ctrls1.readRowHitRate                54.46                       # Row buffer hit rate for reads
system.mem_ctrls1.writeRowHitRate               83.89                       # Row buffer hit rate for writes
system.mem_ctrls1.avgGap                  97494821.93                       # Average gap between requests
system.mem_ctrls1.pageHitRate                   62.36                       # Row buffer hit rate, read and write combined
system.mem_ctrls1_0.actEnergy                11997720                       # Energy for activate commands per rank (pJ)
system.mem_ctrls1_0.preEnergy                 6546375                       # Energy for precharge commands per rank (pJ)
system.mem_ctrls1_0.readEnergy               33735000                       # Energy for read commands per rank (pJ)
system.mem_ctrls1_0.writeEnergy               3933360                       # Energy for write commands per rank (pJ)
system.mem_ctrls1_0.refreshEnergy         30452064240                       # Energy for refresh commands per rank (pJ)
system.mem_ctrls1_0.actBackEnergy         11737001385                       # Energy for active background per rank (pJ)
system.mem_ctrls1_0.preBackEnergy        269444259000                       # Energy for precharge background per rank (pJ)
system.mem_ctrls1_0.totalEnergy          311689537080                       # Total energy per rank (pJ)
system.mem_ctrls1_0.averagePower           668.527226                       # Core power per rank (mW)
system.mem_ctrls1_0.memoryStateTime::IDLE 446541085750                       # Time in different power states
system.mem_ctrls1_0.memoryStateTime::REF  15457520000                       # Time in different power states
system.mem_ctrls1_0.memoryStateTime::PRE_PDN            0                       # Time in different power states
system.mem_ctrls1_0.memoryStateTime::ACT    907296750                       # Time in different power states
system.mem_ctrls1_0.memoryStateTime::ACT_PDN            0                       # Time in different power states
system.mem_ctrls1_1.actEnergy                19383840                       # Energy for activate commands per rank (pJ)
system.mem_ctrls1_1.preEnergy                10576500                       # Energy for precharge commands per rank (pJ)
system.mem_ctrls1_1.readEnergy               51207000                       # Energy for read commands per rank (pJ)
system.mem_ctrls1_1.writeEnergy               4192560                       # Energy for write commands per rank (pJ)
system.mem_ctrls1_1.refreshEnergy         30452064240                       # Energy for refresh commands per rank (pJ)
system.mem_ctrls1_1.actBackEnergy         12804008040                       # Energy for active background per rank (pJ)
system.mem_ctrls1_1.preBackEnergy        268508280000                       # Energy for precharge background per rank (pJ)
system.mem_ctrls1_1.totalEnergy          311849712180                       # Total energy per rank (pJ)
system.mem_ctrls1_1.averagePower           668.870798                       # Core power per rank (mW)
system.mem_ctrls1_1.memoryStateTime::IDLE 445468232000                       # Time in different power states
system.mem_ctrls1_1.memoryStateTime::REF  15457520000                       # Time in different power states
system.mem_ctrls1_1.memoryStateTime::PRE_PDN            0                       # Time in different power states
system.mem_ctrls1_1.memoryStateTime::ACT   1982369250                       # Time in different power states
system.mem_ctrls1_1.memoryStateTime::ACT_PDN            0                       # Time in different power states
system.cpu_voltage_domain.voltage                   1                       # Voltage in Volts
system.cpu_clk_domain.clock                       500                       # Clock period in ticks
system.cpu0.apic_clk_domain.clock                8000                       # Clock period in ticks
system.cpu0.numCycles                       929196200                       # number of cpu cycles simulated
system.cpu0.numWorkItemsStarted                     0                       # number of work items this cpu started
system.cpu0.numWorkItemsCompleted                   0                       # number of work items this cpu completed
system.cpu0.kern.inst.arm                           0                       # number of arm instructions executed
system.cpu0.kern.inst.quiesce                       0                       # number of quiesce instructions executed
system.cpu0.committedInsts                     398380                       # Number of instructions committed
system.cpu0.committedOps                       841056                       # Number of ops (including micro ops) committed
system.cpu0.num_int_alu_accesses               826071                       # Number of integer alu accesses
system.cpu0.num_fp_alu_accesses                   387                       # Number of float alu accesses
system.cpu0.num_func_calls                      24795                       # number of times a function call or return occured
system.cpu0.num_conditional_control_insts        55319                       # number of instructions that are conditional controls
system.cpu0.num_int_insts                      826071                       # number of integer instructions
system.cpu0.num_fp_insts                          387                       # number of float instructions
system.cpu0.num_int_register_reads            1669673                       # number of times the integer registers were read
system.cpu0.num_int_register_writes            674652                       # number of times the integer registers were written
system.cpu0.num_fp_register_reads                 622                       # number of times the floating registers were read
system.cpu0.num_fp_register_writes                354                       # number of times the floating registers were written
system.cpu0.num_cc_register_reads              444026                       # number of times the CC registers were read
system.cpu0.num_cc_register_writes             257632                       # number of times the CC registers were written
system.cpu0.num_mem_refs                       200607                       # number of memory refs
system.cpu0.num_load_insts                     122746                       # Number of load instructions
system.cpu0.num_store_insts                     77861                       # Number of store instructions
system.cpu0.num_idle_cycles              927418886.516301                       # Number of idle cycles
system.cpu0.num_busy_cycles              1777313.483699                       # Number of busy cycles
system.cpu0.not_idle_fraction                0.001913                       # Percentage of non-idle cycles
system.cpu0.idle_fraction                    0.998087                       # Percentage of idle cycles
system.cpu0.Branches                            87622                       # Number of branches fetched
system.cpu0.op_class::No_OpClass                 9677      1.15%      1.15% # Class of executed instruction
system.cpu0.op_class::IntAlu                   626406     74.48%     75.63% # Class of executed instruction
system.cpu0.op_class::IntMult                    1673      0.20%     75.83% # Class of executed instruction
system.cpu0.op_class::IntDiv                     2478      0.29%     76.12% # Class of executed instruction
system.cpu0.op_class::FloatAdd                    239      0.03%     76.15% # Class of executed instruction
system.cpu0.op_class::FloatCmp                      0      0.00%     76.15% # Class of executed instruction
system.cpu0.op_class::FloatCvt                      0      0.00%     76.15% # Class of executed instruction
system.cpu0.op_class::FloatMult                     0      0.00%     76.15% # Class of executed instruction
system.cpu0.op_class::FloatDiv                      0      0.00%     76.15% # Class of executed instruction
system.cpu0.op_class::FloatSqrt                     0      0.00%     76.15% # Class of executed instruction
system.cpu0.op_class::SimdAdd                       0      0.00%     76.15% # Class of executed instruction
system.cpu0.op_class::SimdAddAcc                    0      0.00%     76.15% # Class of executed instruction
system.cpu0.op_class::SimdAlu                       0      0.00%     76.15% # Class of executed instruction
system.cpu0.op_class::SimdCmp                       0      0.00%     76.15% # Class of executed instruction
system.cpu0.op_class::SimdCvt                       0      0.00%     76.15% # Class of executed instruction
system.cpu0.op_class::SimdMisc                      0      0.00%     76.15% # Class of executed instruction
system.cpu0.op_class::SimdMult                      0      0.00%     76.15% # Class of executed instruction
system.cpu0.op_class::SimdMultAcc                   0      0.00%     76.15% # Class of executed instruction
system.cpu0.op_class::SimdShift                     0      0.00%     76.15% # Class of executed instruction
system.cpu0.op_class::SimdShiftAcc                  0      0.00%     76.15% # Class of executed instruction
system.cpu0.op_class::SimdSqrt                      0      0.00%     76.15% # Class of executed instruction
system.cpu0.op_class::SimdFloatAdd                  0      0.00%     76.15% # Class of executed instruction
system.cpu0.op_class::SimdFloatAlu                  0      0.00%     76.15% # Class of executed instruction
system.cpu0.op_class::SimdFloatCmp                  0      0.00%     76.15% # Class of executed instruction
system.cpu0.op_class::SimdFloatCvt                  0      0.00%     76.15% # Class of executed instruction
system.cpu0.op_class::SimdFloatDiv                  0      0.00%     76.15% # Class of executed instruction
system.cpu0.op_class::SimdFloatMisc                 0      0.00%     76.15% # Class of executed instruction
system.cpu0.op_class::SimdFloatMult                 0      0.00%     76.15% # Class of executed instruction
system.cpu0.op_class::SimdFloatMultAcc              0      0.00%     76.15% # Class of executed instruction
system.cpu0.op_class::SimdFloatSqrt                 0      0.00%     76.15% # Class of executed instruction
system.cpu0.op_class::MemRead                  122746     14.59%     90.74% # Class of executed instruction
system.cpu0.op_class::MemWrite                  77861      9.26%    100.00% # Class of executed instruction
system.cpu0.op_class::IprAccess                     0      0.00%    100.00% # Class of executed instruction
system.cpu0.op_class::InstPrefetch                  0      0.00%    100.00% # Class of executed instruction
system.cpu0.op_class::total                    841080                       # Class of executed instruction
system.cpu1.apic_clk_domain.clock                8000                       # Clock period in ticks
system.cpu1.numCycles                       927698197                       # number of cpu cycles simulated
system.cpu1.numWorkItemsStarted                     0                       # number of work items this cpu started
system.cpu1.numWorkItemsCompleted                   0                       # number of work items this cpu completed
system.cpu1.kern.inst.arm                           0                       # number of arm instructions executed
system.cpu1.kern.inst.quiesce                       0                       # number of quiesce instructions executed
system.cpu1.committedInsts                  265724878                       # Number of instructions committed
system.cpu1.committedOps                    479146705                       # Number of ops (including micro ops) committed
system.cpu1.num_int_alu_accesses            269519107                       # Number of integer alu accesses
system.cpu1.num_fp_alu_accesses             270602519                       # Number of float alu accesses
system.cpu1.num_func_calls                    9864002                       # number of times a function call or return occured
system.cpu1.num_conditional_control_insts     14995226                       # number of instructions that are conditional controls
system.cpu1.num_int_insts                   269519107                       # number of integer instructions
system.cpu1.num_fp_insts                    270602519                       # number of float instructions
system.cpu1.num_int_register_reads          512449651                       # number of times the integer registers were read
system.cpu1.num_int_register_writes         176027889                       # number of times the integer registers were written
system.cpu1.num_fp_register_reads           446698678                       # number of times the floating registers were read
system.cpu1.num_fp_register_writes          249457043                       # number of times the floating registers were written
system.cpu1.num_cc_register_reads           106879384                       # number of times the CC registers were read
system.cpu1.num_cc_register_writes           82953744                       # number of times the CC registers were written
system.cpu1.num_mem_refs                     84017166                       # number of memory refs
system.cpu1.num_load_insts                   62863158                       # Number of load instructions
system.cpu1.num_store_insts                  21154008                       # Number of store instructions
system.cpu1.num_idle_cycles              3547046.619663                       # Number of idle cycles
system.cpu1.num_busy_cycles              924151150.380337                       # Number of busy cycles
system.cpu1.not_idle_fraction                0.996177                       # Percentage of non-idle cycles
system.cpu1.idle_fraction                    0.003823                       # Percentage of idle cycles
system.cpu1.Branches                         27042434                       # Number of branches fetched
system.cpu1.op_class::No_OpClass                10597      0.00%      0.00% # Class of executed instruction
system.cpu1.op_class::IntAlu                244746993     51.08%     51.08% # Class of executed instruction
system.cpu1.op_class::IntMult                    2383      0.00%     51.08% # Class of executed instruction
system.cpu1.op_class::IntDiv                     1741      0.00%     51.08% # Class of executed instruction
system.cpu1.op_class::FloatAdd              150367922     31.38%     82.47% # Class of executed instruction
system.cpu1.op_class::FloatCmp                      0      0.00%     82.47% # Class of executed instruction
system.cpu1.op_class::FloatCvt                      0      0.00%     82.47% # Class of executed instruction
system.cpu1.op_class::FloatMult                     0      0.00%     82.47% # Class of executed instruction
system.cpu1.op_class::FloatDiv                      0      0.00%     82.47% # Class of executed instruction
system.cpu1.op_class::FloatSqrt                     0      0.00%     82.47% # Class of executed instruction
system.cpu1.op_class::SimdAdd                       0      0.00%     82.47% # Class of executed instruction
system.cpu1.op_class::SimdAddAcc                    0      0.00%     82.47% # Class of executed instruction
system.cpu1.op_class::SimdAlu                       0      0.00%     82.47% # Class of executed instruction
system.cpu1.op_class::SimdCmp                       0      0.00%     82.47% # Class of executed instruction
system.cpu1.op_class::SimdCvt                       0      0.00%     82.47% # Class of executed instruction
system.cpu1.op_class::SimdMisc                      0      0.00%     82.47% # Class of executed instruction
system.cpu1.op_class::SimdMult                      0      0.00%     82.47% # Class of executed instruction
system.cpu1.op_class::SimdMultAcc                   0      0.00%     82.47% # Class of executed instruction
system.cpu1.op_class::SimdShift                     0      0.00%     82.47% # Class of executed instruction
system.cpu1.op_class::SimdShiftAcc                  0      0.00%     82.47% # Class of executed instruction
system.cpu1.op_class::SimdSqrt                      0      0.00%     82.47% # Class of executed instruction
system.cpu1.op_class::SimdFloatAdd                  0      0.00%     82.47% # Class of executed instruction
system.cpu1.op_class::SimdFloatAlu                  0      0.00%     82.47% # Class of executed instruction
system.cpu1.op_class::SimdFloatCmp                  0      0.00%     82.47% # Class of executed instruction
system.cpu1.op_class::SimdFloatCvt                  0      0.00%     82.47% # Class of executed instruction
system.cpu1.op_class::SimdFloatDiv                  0      0.00%     82.47% # Class of executed instruction
system.cpu1.op_class::SimdFloatMisc                 0      0.00%     82.47% # Class of executed instruction
system.cpu1.op_class::SimdFloatMult                 0      0.00%     82.47% # Class of executed instruction
system.cpu1.op_class::SimdFloatMultAcc              0      0.00%     82.47% # Class of executed instruction
system.cpu1.op_class::SimdFloatSqrt                 0      0.00%     82.47% # Class of executed instruction
system.cpu1.op_class::MemRead                62863158     13.12%     95.59% # Class of executed instruction
system.cpu1.op_class::MemWrite               21154008      4.41%    100.00% # Class of executed instruction
system.cpu1.op_class::IprAccess                     0      0.00%    100.00% # Class of executed instruction
system.cpu1.op_class::InstPrefetch                  0      0.00%    100.00% # Class of executed instruction
system.cpu1.op_class::total                 479146802                       # Class of executed instruction
system.cpu2.apic_clk_domain.clock                8000                       # Clock period in ticks
system.cpu2.numCycles                       923469843                       # number of cpu cycles simulated
system.cpu2.numWorkItemsStarted                     0                       # number of work items this cpu started
system.cpu2.numWorkItemsCompleted                   0                       # number of work items this cpu completed
system.cpu2.kern.inst.arm                           0                       # number of arm instructions executed
system.cpu2.kern.inst.quiesce                       0                       # number of quiesce instructions executed
system.cpu2.committedInsts                     367033                       # Number of instructions committed
system.cpu2.committedOps                       777510                       # Number of ops (including micro ops) committed
system.cpu2.num_int_alu_accesses               762505                       # Number of integer alu accesses
system.cpu2.num_fp_alu_accesses                    33                       # Number of float alu accesses
system.cpu2.num_func_calls                      21455                       # number of times a function call or return occured
system.cpu2.num_conditional_control_insts        56101                       # number of instructions that are conditional controls
system.cpu2.num_int_insts                      762505                       # number of integer instructions
system.cpu2.num_fp_insts                           33                       # number of float instructions
system.cpu2.num_int_register_reads            1538066                       # number of times the integer registers were read
system.cpu2.num_int_register_writes            627093                       # number of times the integer registers were written
system.cpu2.num_fp_register_reads                  14                       # number of times the floating registers were read
system.cpu2.num_fp_register_writes                 25                       # number of times the floating registers were written
system.cpu2.num_cc_register_reads              434682                       # number of times the CC registers were read
system.cpu2.num_cc_register_writes             233707                       # number of times the CC registers were written
system.cpu2.num_mem_refs                       183263                       # number of memory refs
system.cpu2.num_load_insts                     113420                       # Number of load instructions
system.cpu2.num_store_insts                     69843                       # Number of store instructions
system.cpu2.num_idle_cycles              921745589.803437                       # Number of idle cycles
system.cpu2.num_busy_cycles              1724253.196563                       # Number of busy cycles
system.cpu2.not_idle_fraction                0.001867                       # Percentage of non-idle cycles
system.cpu2.idle_fraction                    0.998133                       # Percentage of idle cycles
system.cpu2.Branches                            84413                       # Number of branches fetched
[...]
system.ruby.DMA_Controller.READY.ReadRequest::total           30                      
system.ruby.DMA_Controller.READY.WriteRequest |        2240    100.00%    100.00% |           0      0.00%    100.00%
system.ruby.DMA_Controller.READY.WriteRequest::total         2240                      
system.ruby.DMA_Controller.BUSY_RD.Data  |          30    100.00%    100.00% |           0      0.00%    100.00%
system.ruby.DMA_Controller.BUSY_RD.Data::total           30                      
system.ruby.DMA_Controller.BUSY_WR.Ack   |        2240    100.00%    100.00% |           0      0.00%    100.00%
system.ruby.DMA_Controller.BUSY_WR.Ack::total         2240                      
system.ruby.L1Cache_Controller.Load      |      382689      0.56%      0.56% |    63005356     92.71%     93.27% |      718002      1.06%     94.33% |     3855052      5.67%    100.00%
system.ruby.L1Cache_Controller.Load::total     67961099                      
system.ruby.L1Cache_Controller.Ifetch    |     1858365      0.46%      0.46% |   375491810     93.16%     93.62% |     4036299      1.00%     94.62% |    21689865      5.38%    100.00%
system.ruby.L1Cache_Controller.Ifetch::total    403076339                      
system.ruby.L1Cache_Controller.Store     |      290312      1.16%      1.16% |    21278759     85.35%     86.51% |      569064      2.28%     88.79% |     2793824     11.21%    100.00%
system.ruby.L1Cache_Controller.Store::total     24931959                      
system.ruby.L1Cache_Controller.Inv       |        3839     18.14%     18.14% |        4971     23.49%     41.62% |        5503     26.00%     67.62% |        6853     32.38%    100.00%
system.ruby.L1Cache_Controller.Inv::total        21166                      
system.ruby.L1Cache_Controller.L1_Replacement |       41123      7.97%      7.97% |      270697     52.43%     60.40% |       69602     13.48%     73.88% |      134864     26.12%    100.00%
system.ruby.L1Cache_Controller.L1_Replacement::total       516286                      
system.ruby.L1Cache_Controller.Fwd_GETX  |         716     21.84%     21.84% |         651     19.85%     41.69% |         689     21.01%     62.70% |        1223     37.30%    100.00%
system.ruby.L1Cache_Controller.Fwd_GETX::total         3279                      
system.ruby.L1Cache_Controller.Fwd_GETS  |        2434     30.60%     30.60% |        1734     21.80%     52.40% |        1489     18.72%     71.12% |        2297     28.88%    100.00%
system.ruby.L1Cache_Controller.Fwd_GETS::total         7954                      
system.ruby.L1Cache_Controller.Data      |         139     12.75%     12.75% |         334     30.64%     43.39% |         290     26.61%     70.00% |         327     30.00%    100.00%
system.ruby.L1Cache_Controller.Data::total         1090                      
system.ruby.L1Cache_Controller.Data_Exclusive |       11327      4.32%      4.32% |      206966     78.93%     83.25% |       21189      8.08%     91.33% |       22746      8.67%    100.00%
system.ruby.L1Cache_Controller.Data_Exclusive::total       262228                      
system.ruby.L1Cache_Controller.DataS_fromL1 |        1621     20.38%     20.38% |        1349     16.96%     37.34% |        2069     26.01%     63.35% |        2915     36.65%    100.00%
system.ruby.L1Cache_Controller.DataS_fromL1::total         7954                      
system.ruby.L1Cache_Controller.Data_all_Acks |       28860     11.62%     11.62% |       62450     25.13%     36.75% |       47241     19.01%     55.76% |      109912     44.24%    100.00%
system.ruby.L1Cache_Controller.Data_all_Acks::total       248463                      
system.ruby.L1Cache_Controller.Ack       |        3401     38.08%     38.08% |        1671     18.71%     56.78% |        1964     21.99%     78.77% |        1896     21.23%    100.00%
system.ruby.L1Cache_Controller.Ack::total         8932                      
system.ruby.L1Cache_Controller.Ack_all   |        1923     27.59%     27.59% |        1434     20.57%     48.16% |        1759     25.23%     73.39% |        1855     26.61%    100.00%
system.ruby.L1Cache_Controller.Ack_all::total         6971                      
system.ruby.L1Cache_Controller.WB_Ack    |       18189      5.47%      5.47% |      243733     73.27%     78.74% |       31042      9.33%     88.07% |       39684     11.93%    100.00%
system.ruby.L1Cache_Controller.WB_Ack::total       332648                      
system.ruby.L1Cache_Controller.NP.Load   |       14975      5.26%      5.26% |      213830     75.13%     80.39% |       26645      9.36%     89.75% |       29180     10.25%    100.00%
system.ruby.L1Cache_Controller.NP.Load::total       284630                      
system.ruby.L1Cache_Controller.NP.Ifetch |       17634     11.32%     11.32% |       18790     12.07%     23.39% |       32122     20.63%     44.02% |       87183     55.98%    100.00%
system.ruby.L1Cache_Controller.NP.Ifetch::total       155729                      
system.ruby.L1Cache_Controller.NP.Store  |        8981     11.73%     11.73% |       38077     49.73%     61.46% |       11002     14.37%     75.83% |       18501     24.17%    100.00%
system.ruby.L1Cache_Controller.NP.Store::total        76561                      
system.ruby.L1Cache_Controller.NP.Inv    |        1768     15.15%     15.15% |        2946     25.25%     40.40% |        3108     26.64%     67.04% |        3846     32.96%    100.00%
system.ruby.L1Cache_Controller.NP.Inv::total        11668                      
system.ruby.L1Cache_Controller.I.Load    |         249     10.50%     10.50% |         279     11.77%     22.27% |         924     38.97%     61.24% |         919     38.76%    100.00%
system.ruby.L1Cache_Controller.I.Load::total         2371                      
system.ruby.L1Cache_Controller.I.Ifetch  |           8     16.67%     16.67% |          16     33.33%     50.00% |          13     27.08%     77.08% |          11     22.92%    100.00%
system.ruby.L1Cache_Controller.I.Ifetch::total           48                      
system.ruby.L1Cache_Controller.I.Store   |         100     25.25%     25.25% |         107     27.02%     52.27% |          83     20.96%     73.23% |         106     26.77%    100.00%
system.ruby.L1Cache_Controller.I.Store::total          396                      
system.ruby.L1Cache_Controller.I.L1_Replacement |        2589     26.83%     26.83% |        2150     22.28%     49.11% |        2054     21.28%     70.39% |        2857     29.61%    100.00%
system.ruby.L1Cache_Controller.I.L1_Replacement::total         9650                      
system.ruby.L1Cache_Controller.S.Load    |       49253      0.38%      0.38% |    12589206     97.83%     98.21% |       82330      0.64%     98.85% |      147951      1.15%    100.00%
system.ruby.L1Cache_Controller.S.Load::total     12868740                      
system.ruby.L1Cache_Controller.S.Ifetch  |     1840723      0.46%      0.46% |   375473004     93.19%     93.64% |     4004162      0.99%     94.64% |    21602671      5.36%    100.00%
system.ruby.L1Cache_Controller.S.Ifetch::total    402920560                      
system.ruby.L1Cache_Controller.S.Store   |        1784     30.33%     30.33% |        1100     18.70%     49.04% |        1469     24.98%     74.02% |        1528     25.98%    100.00%
system.ruby.L1Cache_Controller.S.Store::total         5881                      
system.ruby.L1Cache_Controller.S.Inv     |        1851     21.68%     21.68% |        1692     19.82%     41.50% |        2142     25.09%     66.58% |        2853     33.42%    100.00%
system.ruby.L1Cache_Controller.S.Inv::total         8538                      
system.ruby.L1Cache_Controller.S.L1_Replacement |       20345     11.69%     11.69% |       24814     14.26%     25.96% |       36506     20.98%     46.94% |       92323     53.06%    100.00%
system.ruby.L1Cache_Controller.S.L1_Replacement::total       173988                      
system.ruby.L1Cache_Controller.E.Load    |       87810      0.33%      0.33% |    25830659     97.64%     97.98% |      183761      0.69%     98.67% |      351833      1.33%    100.00%
system.ruby.L1Cache_Controller.E.Load::total     26454063                      
system.ruby.L1Cache_Controller.E.Store   |        2860     13.68%     13.68% |        3402     16.27%     29.95% |        8075     38.62%     68.56% |        6574     31.44%    100.00%
system.ruby.L1Cache_Controller.E.Store::total        20911                      
system.ruby.L1Cache_Controller.E.Inv     |          82     26.28%     26.28% |         112     35.90%     62.18% |          60     19.23%     81.41% |          58     18.59%    100.00%
system.ruby.L1Cache_Controller.E.Inv::total          312                      
system.ruby.L1Cache_Controller.E.L1_Replacement |        7126      3.01%      3.01% |      202567     85.68%     88.69% |       12128      5.13%     93.82% |       14605      6.18%    100.00%
system.ruby.L1Cache_Controller.E.L1_Replacement::total       236426                      
system.ruby.L1Cache_Controller.E.Fwd_GETX |         147      9.89%      9.89% |         143      9.62%     19.52% |         389     26.18%     45.69% |         807     54.31%    100.00%
system.ruby.L1Cache_Controller.E.Fwd_GETX::total         1486                      
system.ruby.L1Cache_Controller.E.Fwd_GETS |         698     23.61%     23.61% |         653     22.08%     45.69% |         567     19.17%     64.86% |        1039     35.14%    100.00%
system.ruby.L1Cache_Controller.E.Fwd_GETS::total         2957                      
system.ruby.L1Cache_Controller.M.Load    |      230402      0.81%      0.81% |    24371382     85.96%     86.77% |      424342      1.50%     88.27% |     3325169     11.73%    100.00%
system.ruby.L1Cache_Controller.M.Load::total     28351295                      
system.ruby.L1Cache_Controller.M.Store   |      276587      1.11%      1.11% |    21236073     85.53%     86.65% |      548435      2.21%     88.85% |     2767115     11.15%    100.00%
system.ruby.L1Cache_Controller.M.Store::total     24828210                      
system.ruby.L1Cache_Controller.M.Inv     |         138     21.30%     21.30% |         221     34.10%     55.40% |         193     29.78%     85.19% |          96     14.81%    100.00%
system.ruby.L1Cache_Controller.M.Inv::total          648                      
system.ruby.L1Cache_Controller.M.L1_Replacement |       11063     11.50%     11.50% |       41166     42.78%     54.28% |       18914     19.66%     73.94% |       25079     26.06%    100.00%
system.ruby.L1Cache_Controller.M.L1_Replacement::total        96222                      
system.ruby.L1Cache_Controller.M.Fwd_GETX |         569     31.75%     31.75% |         507     28.29%     60.04% |         300     16.74%     76.79% |         416     23.21%    100.00%
system.ruby.L1Cache_Controller.M.Fwd_GETX::total         1792                      
system.ruby.L1Cache_Controller.M.Fwd_GETS |        1736     34.75%     34.75% |        1080     21.62%     56.37% |         922     18.45%     74.82% |        1258     25.18%    100.00%
system.ruby.L1Cache_Controller.M.Fwd_GETS::total         4996                      
system.ruby.L1Cache_Controller.IS.Data_Exclusive |       11327      4.32%      4.32% |      206966     78.93%     83.25% |       21189      8.08%     91.33% |       22746      8.67%    100.00%
system.ruby.L1Cache_Controller.IS.Data_Exclusive::total       262228                      
system.ruby.L1Cache_Controller.IS.DataS_fromL1 |        1621     20.38%     20.38% |        1349     16.96%     37.34% |        2069     26.01%     63.35% |        2915     36.65%    100.00%
system.ruby.L1Cache_Controller.IS.DataS_fromL1::total         7954                      
system.ruby.L1Cache_Controller.IS.Data_all_Acks |       19918     11.54%     11.54% |       24600     14.25%     25.79% |       36446     21.12%     46.91% |       91632     53.09%    100.00%
system.ruby.L1Cache_Controller.IS.Data_all_Acks::total       172596                      
system.ruby.L1Cache_Controller.IM.Data   |         139     12.75%     12.75% |         334     30.64%     43.39% |         290     26.61%     70.00% |         327     30.00%    100.00%
system.ruby.L1Cache_Controller.IM.Data::total         1090                      
system.ruby.L1Cache_Controller.IM.Data_all_Acks |        8942     11.79%     11.79% |       37850     49.89%     61.68% |       10795     14.23%     75.91% |       18280     24.09%    100.00%
system.ruby.L1Cache_Controller.IM.Data_all_Acks::total        75867                      
system.ruby.L1Cache_Controller.SM.Ack    |        3401     38.08%     38.08% |        1671     18.71%     56.78% |        1964     21.99%     78.77% |        1896     21.23%    100.00%
system.ruby.L1Cache_Controller.SM.Ack::total         8932                      
system.ruby.L1Cache_Controller.SM.Ack_all |        1923     27.59%     27.59% |        1434     20.57%     48.16% |        1759     25.23%     73.39% |        1855     26.61%    100.00%
system.ruby.L1Cache_Controller.SM.Ack_all::total         6971                      
system.ruby.L1Cache_Controller.M_I.Ifetch |           0      0.00%      0.00% |           0      0.00%      0.00% |           2    100.00%    100.00% |           0      0.00%    100.00%
system.ruby.L1Cache_Controller.M_I.Ifetch::total            2                      
system.ruby.L1Cache_Controller.M_I.Fwd_GETX |           0      0.00%      0.00% |           1    100.00%    100.00% |           0      0.00%    100.00% |           0      0.00%    100.00%
system.ruby.L1Cache_Controller.M_I.Fwd_GETX::total            1                      
system.ruby.L1Cache_Controller.M_I.Fwd_GETS |           0      0.00%      0.00% |           1    100.00%    100.00% |           0      0.00%    100.00% |           0      0.00%    100.00%
system.ruby.L1Cache_Controller.M_I.Fwd_GETS::total            1                      
system.ruby.L1Cache_Controller.M_I.WB_Ack |       18189      5.47%      5.47% |      243731     73.27%     78.74% |       31042      9.33%     88.07% |       39684     11.93%    100.00%
system.ruby.L1Cache_Controller.M_I.WB_Ack::total       332646                      
system.ruby.L1Cache_Controller.SINK_WB_ACK.WB_Ack |           0      0.00%      0.00% |           2    100.00%    100.00% |           0      0.00%    100.00% |           0      0.00%    100.00%
system.ruby.L1Cache_Controller.SINK_WB_ACK.WB_Ack::total            2                      
system.ruby.L2Cache_Controller.L1_GET_INSTR       155777      0.00%      0.00%
system.ruby.L2Cache_Controller.L1_GETS         287050      0.00%      0.00%
system.ruby.L2Cache_Controller.L1_GETX          76960      0.00%      0.00%
system.ruby.L2Cache_Controller.L1_UPGRADE         5881      0.00%      0.00%
system.ruby.L2Cache_Controller.L1_PUTX         332649      0.00%      0.00%
system.ruby.L2Cache_Controller.L1_PUTX_old            1      0.00%      0.00%
system.ruby.L2Cache_Controller.L2_Replacement        13665      0.00%      0.00%
system.ruby.L2Cache_Controller.L2_Replacement_clean        12469      0.00%      0.00%
system.ruby.L2Cache_Controller.Mem_Data         43364      0.00%      0.00%
system.ruby.L2Cache_Controller.Mem_Ack          26140      0.00%      0.00%
system.ruby.L2Cache_Controller.WB_Data           5645      0.00%      0.00%
system.ruby.L2Cache_Controller.WB_Data_clean         2957      0.00%      0.00%
system.ruby.L2Cache_Controller.Ack               4820      0.00%      0.00%
system.ruby.L2Cache_Controller.Ack_all           5676      0.00%      0.00%
system.ruby.L2Cache_Controller.Unblock           7954      0.00%      0.00%
system.ruby.L2Cache_Controller.Exclusive_Unblock       345066      0.00%      0.00%
system.ruby.L2Cache_Controller.MEM_Inv             12      0.00%      0.00%
system.ruby.L2Cache_Controller.NP.L1_GET_INSTR         6998      0.00%      0.00%
system.ruby.L2Cache_Controller.NP.L1_GETS        19150      0.00%      0.00%
system.ruby.L2Cache_Controller.NP.L1_GETX        17216      0.00%      0.00%
system.ruby.L2Cache_Controller.SS.L1_GET_INSTR       148767      0.00%      0.00%
system.ruby.L2Cache_Controller.SS.L1_GETS        16805      0.00%      0.00%
system.ruby.L2Cache_Controller.SS.L1_GETX         1090      0.00%      0.00%
system.ruby.L2Cache_Controller.SS.L1_UPGRADE         5881      0.00%      0.00%
system.ruby.L2Cache_Controller.SS.L1_PUTX            1      0.00%      0.00%
system.ruby.L2Cache_Controller.SS.L2_Replacement          206      0.00%      0.00%
system.ruby.L2Cache_Controller.SS.L2_Replacement_clean         5158      0.00%      0.00%
system.ruby.L2Cache_Controller.M.L1_GET_INSTR           12      0.00%      0.00%
system.ruby.L2Cache_Controller.M.L1_GETS       243085      0.00%      0.00%
system.ruby.L2Cache_Controller.M.L1_GETX        55372      0.00%      0.00%
system.ruby.L2Cache_Controller.M.L2_Replacement        13100      0.00%      0.00%
system.ruby.L2Cache_Controller.M.L2_Replacement_clean         6716      0.00%      0.00%
system.ruby.L2Cache_Controller.MT.L1_GETS         7954      0.00%      0.00%
system.ruby.L2Cache_Controller.MT.L1_GETX         3279      0.00%      0.00%
system.ruby.L2Cache_Controller.MT.L1_PUTX       332646      0.00%      0.00%
system.ruby.L2Cache_Controller.MT.L1_PUTX_old            1      0.00%      0.00%
system.ruby.L2Cache_Controller.MT.L2_Replacement          359      0.00%      0.00%
system.ruby.L2Cache_Controller.MT.L2_Replacement_clean          595      0.00%      0.00%
system.ruby.L2Cache_Controller.MT.MEM_Inv            6      0.00%      0.00%
system.ruby.L2Cache_Controller.M_I.L1_GETS            2      0.00%      0.00%
system.ruby.L2Cache_Controller.M_I.Mem_Ack        26140      0.00%      0.00%
system.ruby.L2Cache_Controller.MT_I.WB_Data          248      0.00%      0.00%
system.ruby.L2Cache_Controller.MT_I.Ack_all          117      0.00%      0.00%
system.ruby.L2Cache_Controller.MT_I.MEM_Inv            6      0.00%      0.00%
system.ruby.L2Cache_Controller.MCT_I.WB_Data          400      0.00%      0.00%
system.ruby.L2Cache_Controller.MCT_I.Ack_all          195      0.00%      0.00%
system.ruby.L2Cache_Controller.I_I.Ack           4589      0.00%      0.00%
system.ruby.L2Cache_Controller.I_I.Ack_all         5158      0.00%      0.00%
system.ruby.L2Cache_Controller.S_I.Ack            231      0.00%      0.00%
system.ruby.L2Cache_Controller.S_I.Ack_all          206      0.00%      0.00%
system.ruby.L2Cache_Controller.ISS.L1_GETS            7      0.00%      0.00%
system.ruby.L2Cache_Controller.ISS.Mem_Data        19143      0.00%      0.00%
system.ruby.L2Cache_Controller.IS.Mem_Data         7005      0.00%      0.00%
system.ruby.L2Cache_Controller.IM.Mem_Data        17216      0.00%      0.00%
system.ruby.L2Cache_Controller.SS_MB.L1_GETS           31      0.00%      0.00%
system.ruby.L2Cache_Controller.SS_MB.Exclusive_Unblock         6971      0.00%      0.00%
system.ruby.L2Cache_Controller.MT_MB.L1_GETS           12      0.00%      0.00%
system.ruby.L2Cache_Controller.MT_MB.L1_GETX            3      0.00%      0.00%
system.ruby.L2Cache_Controller.MT_MB.L1_PUTX            1      0.00%      0.00%
system.ruby.L2Cache_Controller.MT_MB.Exclusive_Unblock       338095      0.00%      0.00%
system.ruby.L2Cache_Controller.MT_IIB.L1_GETS            4      0.00%      0.00%
system.ruby.L2Cache_Controller.MT_IIB.L1_PUTX            1      0.00%      0.00%
system.ruby.L2Cache_Controller.MT_IIB.WB_Data         4991      0.00%      0.00%
system.ruby.L2Cache_Controller.MT_IIB.WB_Data_clean         2951      0.00%      0.00%
system.ruby.L2Cache_Controller.MT_IIB.Unblock           12      0.00%      0.00%
system.ruby.L2Cache_Controller.MT_IB.WB_Data            6      0.00%      0.00%
system.ruby.L2Cache_Controller.MT_IB.WB_Data_clean            6      0.00%      0.00%
system.ruby.L2Cache_Controller.MT_SB.Unblock         7942      0.00%      0.00%

---------- End Simulation Statistics   ----------
