
---------- Begin Simulation Statistics ----------
sim_seconds                                  4.117941                       # Number of seconds simulated
sim_ticks                                4117940859000                       # Number of ticks simulated
final_tick                               57219311893501                       # Number of ticks from beginning of simulation (restored from checkpoints and never reset)
sim_freq                                 1000000000000                       # Frequency of simulated ticks
host_inst_rate                                 154090                       # Simulator instruction rate (inst/s)
host_op_rate                                   216058                       # Simulator op (including micro ops) rate (op/s)
host_tick_rate                              281871116                       # Simulator tick rate (ticks/s)
host_mem_usage                                1829108                       # Number of bytes of host memory used
host_seconds                                 14609.30                       # Real time elapsed on the host
sim_insts                                  2251151563                       # Number of instructions simulated
sim_ops                                    3156453533                       # Number of ops (including micro ops) simulated
system.voltage_domain.voltage                       1                       # Voltage in Volts
system.clk_domain.clock                          1000                       # Clock period in ticks
system.mem_ctrls.bytes_read::ruby.dir_cntrl0     93563648                       # Number of bytes read from this memory
system.mem_ctrls.bytes_read::total           93563648                       # Number of bytes read from this memory
system.mem_ctrls.bytes_written::ruby.dir_cntrl0     51264832                       # Number of bytes written to this memory
system.mem_ctrls.bytes_written::total        51264832                       # Number of bytes written to this memory
system.mem_ctrls.num_reads::ruby.dir_cntrl0      1461932                       # Number of read requests responded to by this memory
system.mem_ctrls.num_reads::total             1461932                       # Number of read requests responded to by this memory
system.mem_ctrls.num_writes::ruby.dir_cntrl0       801013                       # Number of write requests responded to by this memory
system.mem_ctrls.num_writes::total             801013                       # Number of write requests responded to by this memory
system.mem_ctrls.bw_read::ruby.dir_cntrl0     22720979                       # Total read bandwidth from this memory (bytes/s)
system.mem_ctrls.bw_read::total              22720979                       # Total read bandwidth from this memory (bytes/s)
system.mem_ctrls.bw_write::ruby.dir_cntrl0     12449142                       # Write bandwidth from this memory (bytes/s)
system.mem_ctrls.bw_write::total             12449142                       # Write bandwidth from this memory (bytes/s)
system.mem_ctrls.bw_total::ruby.dir_cntrl0     35170121                       # Total bandwidth to/from this memory (bytes/s)
system.mem_ctrls.bw_total::total             35170121                       # Total bandwidth to/from this memory (bytes/s)
system.mem_ctrls.readReqs                     1461932                       # Number of read requests accepted
system.mem_ctrls.writeReqs                     801013                       # Number of write requests accepted
system.mem_ctrls.readBursts                   1461932                       # Number of DRAM read bursts, including those serviced by the write queue
system.mem_ctrls.writeBursts                   801013                       # Number of DRAM write bursts, including those merged in the write queue
system.mem_ctrls.bytesReadDRAM               93501120                       # Total number of bytes read from DRAM
system.mem_ctrls.bytesReadWrQ                   62528                       # Total number of bytes read from write queue
system.mem_ctrls.bytesWritten                51264576                       # Total number of bytes written to DRAM
system.mem_ctrls.bytesReadSys                93563648                       # Total read bytes from the system interface side
system.mem_ctrls.bytesWrittenSys             51264832                       # Total written bytes from the system interface side
system.mem_ctrls.servicedByWrQ                    977                       # Number of DRAM read bursts serviced by the write queue
system.mem_ctrls.mergedWrBursts                     0                       # Number of DRAM write bursts merged with an existing one
system.mem_ctrls.neitherReadNorWriteReqs            0                       # Number of requests that are neither read nor write
system.mem_ctrls.perBankRdBursts::0             92852                       # Per bank write bursts
system.mem_ctrls.perBankRdBursts::1             94514                       # Per bank write bursts
system.mem_ctrls.perBankRdBursts::2             86371                       # Per bank write bursts
system.mem_ctrls.perBankRdBursts::3             81611                       # Per bank write bursts
system.mem_ctrls.perBankRdBursts::4             90293                       # Per bank write bursts
system.mem_ctrls.perBankRdBursts::5             85098                       # Per bank write bursts
system.mem_ctrls.perBankRdBursts::6             94308                       # Per bank write bursts
system.mem_ctrls.perBankRdBursts::7             90765                       # Per bank write bursts
system.mem_ctrls.perBankRdBursts::8             99069                       # Per bank write bursts
system.mem_ctrls.perBankRdBursts::9             97207                       # Per bank write bursts
system.mem_ctrls.perBankRdBursts::10            97622                       # Per bank write bursts
system.mem_ctrls.perBankRdBursts::11            94357                       # Per bank write bursts
system.mem_ctrls.perBankRdBursts::12            90476                       # Per bank write bursts
system.mem_ctrls.perBankRdBursts::13            87675                       # Per bank write bursts
system.mem_ctrls.perBankRdBursts::14            89182                       # Per bank write bursts
system.mem_ctrls.perBankRdBursts::15            89555                       # Per bank write bursts
system.mem_ctrls.perBankWrBursts::0             49785                       # Per bank write bursts
system.mem_ctrls.perBankWrBursts::1             52944                       # Per bank write bursts
system.mem_ctrls.perBankWrBursts::2             48136                       # Per bank write bursts
system.mem_ctrls.perBankWrBursts::3             45318                       # Per bank write bursts
system.mem_ctrls.perBankWrBursts::4             48110                       # Per bank write bursts
system.mem_ctrls.perBankWrBursts::5             46794                       # Per bank write bursts
system.mem_ctrls.perBankWrBursts::6             51377                       # Per bank write bursts
system.mem_ctrls.perBankWrBursts::7             49362                       # Per bank write bursts
system.mem_ctrls.perBankWrBursts::8             54317                       # Per bank write bursts
system.mem_ctrls.perBankWrBursts::9             52725                       # Per bank write bursts
system.mem_ctrls.perBankWrBursts::10            53360                       # Per bank write bursts
system.mem_ctrls.perBankWrBursts::11            52727                       # Per bank write bursts
system.mem_ctrls.perBankWrBursts::12            49579                       # Per bank write bursts
system.mem_ctrls.perBankWrBursts::13            48920                       # Per bank write bursts
system.mem_ctrls.perBankWrBursts::14            48712                       # Per bank write bursts
system.mem_ctrls.perBankWrBursts::15            48843                       # Per bank write bursts
system.mem_ctrls.numRdRetry                         0                       # Number of times read queue was full causing retry
system.mem_ctrls.numWrRetry                         0                       # Number of times write queue was full causing retry
system.mem_ctrls.totGap                  4117940784000                       # Total gap between requests
system.mem_ctrls.readPktSize::0                     0                       # Read request sizes (log2)
system.mem_ctrls.readPktSize::1                     0                       # Read request sizes (log2)
system.mem_ctrls.readPktSize::2                     0                       # Read request sizes (log2)
system.mem_ctrls.readPktSize::3                     0                       # Read request sizes (log2)
system.mem_ctrls.readPktSize::4                     0                       # Read request sizes (log2)
system.mem_ctrls.readPktSize::5                     0                       # Read request sizes (log2)
system.mem_ctrls.readPktSize::6               1461932                       # Read request sizes (log2)
system.mem_ctrls.writePktSize::0                    0                       # Write request sizes (log2)
system.mem_ctrls.writePktSize::1                    0                       # Write request sizes (log2)
system.mem_ctrls.writePktSize::2                    0                       # Write request sizes (log2)
system.mem_ctrls.writePktSize::3                    0                       # Write request sizes (log2)
system.mem_ctrls.writePktSize::4                    0                       # Write request sizes (log2)
system.mem_ctrls.writePktSize::5                    0                       # Write request sizes (log2)
system.mem_ctrls.writePktSize::6               801013                       # Write request sizes (log2)
system.mem_ctrls.rdQLenPdf::0                 1457472                       # What read queue length does an incoming req see
system.mem_ctrls.rdQLenPdf::1                    3477                       # What read queue length does an incoming req see
system.mem_ctrls.rdQLenPdf::2                       6                       # What read queue length does an incoming req see
system.mem_ctrls.rdQLenPdf::3                       0                       # What read queue length does an incoming req see
system.mem_ctrls.rdQLenPdf::4                       0                       # What read queue length does an incoming req see
system.mem_ctrls.rdQLenPdf::5                       0                       # What read queue length does an incoming req see
system.mem_ctrls.rdQLenPdf::6                       0                       # What read queue length does an incoming req see
system.mem_ctrls.rdQLenPdf::7                       0                       # What read queue length does an incoming req see
system.mem_ctrls.rdQLenPdf::8                       0                       # What read queue length does an incoming req see
system.mem_ctrls.rdQLenPdf::9                       0                       # What read queue length does an incoming req see
system.mem_ctrls.rdQLenPdf::10                      0                       # What read queue length does an incoming req see
system.mem_ctrls.rdQLenPdf::11                      0                       # What read queue length does an incoming req see
system.mem_ctrls.rdQLenPdf::12                      0                       # What read queue length does an incoming req see
system.mem_ctrls.rdQLenPdf::13                      0                       # What read queue length does an incoming req see
system.mem_ctrls.rdQLenPdf::14                      0                       # What read queue length does an incoming req see
system.mem_ctrls.rdQLenPdf::15                      0                       # What read queue length does an incoming req see
system.mem_ctrls.rdQLenPdf::16                      0                       # What read queue length does an incoming req see
system.mem_ctrls.rdQLenPdf::17                      0                       # What read queue length does an incoming req see
system.mem_ctrls.rdQLenPdf::18                      0                       # What read queue length does an incoming req see
system.mem_ctrls.rdQLenPdf::19                      0                       # What read queue length does an incoming req see
system.mem_ctrls.rdQLenPdf::20                      0                       # What read queue length does an incoming req see
system.mem_ctrls.rdQLenPdf::21                      0                       # What read queue length does an incoming req see
system.mem_ctrls.rdQLenPdf::22                      0                       # What read queue length does an incoming req see
system.mem_ctrls.rdQLenPdf::23                      0                       # What read queue length does an incoming req see
system.mem_ctrls.rdQLenPdf::24                      0                       # What read queue length does an incoming req see
system.mem_ctrls.rdQLenPdf::25                      0                       # What read queue length does an incoming req see
system.mem_ctrls.rdQLenPdf::26                      0                       # What read queue length does an incoming req see
system.mem_ctrls.rdQLenPdf::27                      0                       # What read queue length does an incoming req see
system.mem_ctrls.rdQLenPdf::28                      0                       # What read queue length does an incoming req see
system.mem_ctrls.rdQLenPdf::29                      0                       # What read queue length does an incoming req see
system.mem_ctrls.rdQLenPdf::30                      0                       # What read queue length does an incoming req see
system.mem_ctrls.rdQLenPdf::31                      0                       # What read queue length does an incoming req see
system.mem_ctrls.wrQLenPdf::0                       0                       # What write queue length does an incoming req see
system.mem_ctrls.wrQLenPdf::1                       0                       # What write queue length does an incoming req see
system.mem_ctrls.wrQLenPdf::2                       0                       # What write queue length does an incoming req see
system.mem_ctrls.wrQLenPdf::3                       0                       # What write queue length does an incoming req see
system.mem_ctrls.wrQLenPdf::4                       0                       # What write queue length does an incoming req see
system.mem_ctrls.wrQLenPdf::5                       0                       # What write queue length does an incoming req see
system.mem_ctrls.wrQLenPdf::6                       0                       # What write queue length does an incoming req see
system.mem_ctrls.wrQLenPdf::7                       0                       # What write queue length does an incoming req see
system.mem_ctrls.wrQLenPdf::8                       0                       # What write queue length does an incoming req see
system.mem_ctrls.wrQLenPdf::9                       0                       # What write queue length does an incoming req see
system.mem_ctrls.wrQLenPdf::10                      0                       # What write queue length does an incoming req see
system.mem_ctrls.wrQLenPdf::11                      0                       # What write queue length does an incoming req see
system.mem_ctrls.wrQLenPdf::12                      0                       # What write queue length does an incoming req see
system.mem_ctrls.wrQLenPdf::13                      0                       # What write queue length does an incoming req see
system.mem_ctrls.wrQLenPdf::14                      0                       # What write queue length does an incoming req see
system.mem_ctrls.wrQLenPdf::15                   1061                       # What write queue length does an incoming req see
system.mem_ctrls.wrQLenPdf::16                   1173                       # What write queue length does an incoming req see
system.mem_ctrls.wrQLenPdf::17                  49346                       # What write queue length does an incoming req see
system.mem_ctrls.wrQLenPdf::18                  49878                       # What write queue length does an incoming req see
system.mem_ctrls.wrQLenPdf::19                  49913                       # What write queue length does an incoming req see
system.mem_ctrls.wrQLenPdf::20                  49980                       # What write queue length does an incoming req see
system.mem_ctrls.wrQLenPdf::21                  50002                       # What write queue length does an incoming req see
system.mem_ctrls.wrQLenPdf::22                  50000                       # What write queue length does an incoming req see
system.mem_ctrls.wrQLenPdf::23                  49989                       # What write queue length does an incoming req see
system.mem_ctrls.wrQLenPdf::24                  49982                       # What write queue length does an incoming req see
system.mem_ctrls.wrQLenPdf::25                  49969                       # What write queue length does an incoming req see
system.mem_ctrls.wrQLenPdf::26                  49990                       # What write queue length does an incoming req see
system.mem_ctrls.wrQLenPdf::27                  49969                       # What write queue length does an incoming req see
system.mem_ctrls.wrQLenPdf::28                  49967                       # What write queue length does an incoming req see
system.mem_ctrls.wrQLenPdf::29                  49954                       # What write queue length does an incoming req see
system.mem_ctrls.wrQLenPdf::30                  49947                       # What write queue length does an incoming req see
system.mem_ctrls.wrQLenPdf::31                  49938                       # What write queue length does an incoming req see
system.mem_ctrls.wrQLenPdf::32                  49926                       # What write queue length does an incoming req see
system.mem_ctrls.wrQLenPdf::33                     12                       # What write queue length does an incoming req see
system.mem_ctrls.wrQLenPdf::34                      4                       # What write queue length does an incoming req see
system.mem_ctrls.wrQLenPdf::35                      4                       # What write queue length does an incoming req see
system.mem_ctrls.wrQLenPdf::36                      6                       # What write queue length does an incoming req see
system.mem_ctrls.wrQLenPdf::37                      2                       # What write queue length does an incoming req see
system.mem_ctrls.wrQLenPdf::38                      1                       # What write queue length does an incoming req see
system.mem_ctrls.wrQLenPdf::39                      0                       # What write queue length does an incoming req see
system.mem_ctrls.wrQLenPdf::40                      0                       # What write queue length does an incoming req see
system.mem_ctrls.wrQLenPdf::41                      0                       # What write queue length does an incoming req see
system.mem_ctrls.wrQLenPdf::42                      0                       # What write queue length does an incoming req see
system.mem_ctrls.wrQLenPdf::43                      0                       # What write queue length does an incoming req see
system.mem_ctrls.wrQLenPdf::44                      0                       # What write queue length does an incoming req see
system.mem_ctrls.wrQLenPdf::45                      0                       # What write queue length does an incoming req see
system.mem_ctrls.wrQLenPdf::46                      0                       # What write queue length does an incoming req see
system.mem_ctrls.wrQLenPdf::47                      0                       # What write queue length does an incoming req see
system.mem_ctrls.wrQLenPdf::48                      0                       # What write queue length does an incoming req see
system.mem_ctrls.wrQLenPdf::49                      0                       # What write queue length does an incoming req see
system.mem_ctrls.wrQLenPdf::50                      0                       # What write queue length does an incoming req see
system.mem_ctrls.wrQLenPdf::51                      0                       # What write queue length does an incoming req see
system.mem_ctrls.wrQLenPdf::52                      0                       # What write queue length does an incoming req see
system.mem_ctrls.wrQLenPdf::53                      0                       # What write queue length does an incoming req see
system.mem_ctrls.wrQLenPdf::54                      0                       # What write queue length does an incoming req see
system.mem_ctrls.wrQLenPdf::55                      0                       # What write queue length does an incoming req see
system.mem_ctrls.wrQLenPdf::56                      0                       # What write queue length does an incoming req see
system.mem_ctrls.wrQLenPdf::57                      0                       # What write queue length does an incoming req see
system.mem_ctrls.wrQLenPdf::58                      0                       # What write queue length does an incoming req see
system.mem_ctrls.wrQLenPdf::59                      0                       # What write queue length does an incoming req see
system.mem_ctrls.wrQLenPdf::60                      0                       # What write queue length does an incoming req see
system.mem_ctrls.wrQLenPdf::61                      0                       # What write queue length does an incoming req see
system.mem_ctrls.wrQLenPdf::62                      0                       # What write queue length does an incoming req see
system.mem_ctrls.wrQLenPdf::63                      0                       # What write queue length does an incoming req see
system.mem_ctrls.bytesPerActivate::samples      1263538                       # Bytes accessed per row activation
system.mem_ctrls.bytesPerActivate::mean    114.571649                       # Bytes accessed per row activation
system.mem_ctrls.bytesPerActivate::gmean    87.760043                       # Bytes accessed per row activation
system.mem_ctrls.bytesPerActivate::stdev   140.368807                       # Bytes accessed per row activation
system.mem_ctrls.bytesPerActivate::0-127       890239     70.46%     70.46% # Bytes accessed per row activation
system.mem_ctrls.bytesPerActivate::128-255       280510     22.20%     92.66% # Bytes accessed per row activation
system.mem_ctrls.bytesPerActivate::256-383        37060      2.93%     95.59% # Bytes accessed per row activation
system.mem_ctrls.bytesPerActivate::384-511        15011      1.19%     96.78% # Bytes accessed per row activation
system.mem_ctrls.bytesPerActivate::512-639        10149      0.80%     97.58% # Bytes accessed per row activation
system.mem_ctrls.bytesPerActivate::640-767         8998      0.71%     98.29% # Bytes accessed per row activation
system.mem_ctrls.bytesPerActivate::768-895         5167      0.41%     98.70% # Bytes accessed per row activation
system.mem_ctrls.bytesPerActivate::896-1023         4064      0.32%     99.02% # Bytes accessed per row activation
system.mem_ctrls.bytesPerActivate::1024-1151        12340      0.98%    100.00% # Bytes accessed per row activation
system.mem_ctrls.bytesPerActivate::total      1263538                       # Bytes accessed per row activation
system.mem_ctrls.rdPerTurnAround::samples        49916                       # Reads before turning the bus around for writes
system.mem_ctrls.rdPerTurnAround::mean      29.583340                       # Reads before turning the bus around for writes
system.mem_ctrls.rdPerTurnAround::stdev     75.606096                       # Reads before turning the bus around for writes
system.mem_ctrls.rdPerTurnAround::0-1023        49912     99.99%     99.99% # Reads before turning the bus around for writes
system.mem_ctrls.rdPerTurnAround::1024-2047            3      0.01%    100.00% # Reads before turning the bus around for writes
system.mem_ctrls.rdPerTurnAround::16384-17407            1      0.00%    100.00% # Reads before turning the bus around for writes
system.mem_ctrls.rdPerTurnAround::total         49916                       # Reads before turning the bus around for writes
system.mem_ctrls.wrPerTurnAround::samples        49916                       # Writes before turning the bus around for reads
system.mem_ctrls.wrPerTurnAround::mean      16.047139                       # Writes before turning the bus around for reads
system.mem_ctrls.wrPerTurnAround::gmean     16.044414                       # Writes before turning the bus around for reads
system.mem_ctrls.wrPerTurnAround::stdev      0.308616                       # Writes before turning the bus around for reads
system.mem_ctrls.wrPerTurnAround::16            48719     97.60%     97.60% # Writes before turning the bus around for reads
system.mem_ctrls.wrPerTurnAround::17               84      0.17%     97.77% # Writes before turning the bus around for reads
system.mem_ctrls.wrPerTurnAround::18             1094      2.19%     99.96% # Writes before turning the bus around for reads
system.mem_ctrls.wrPerTurnAround::19               10      0.02%     99.98% # Writes before turning the bus around for reads
system.mem_ctrls.wrPerTurnAround::20                3      0.01%     99.99% # Writes before turning the bus around for reads
system.mem_ctrls.wrPerTurnAround::21                2      0.00%     99.99% # Writes before turning the bus around for reads
system.mem_ctrls.wrPerTurnAround::22                2      0.00%    100.00% # Writes before turning the bus around for reads
system.mem_ctrls.wrPerTurnAround::24                1      0.00%    100.00% # Writes before turning the bus around for reads
system.mem_ctrls.wrPerTurnAround::25                1      0.00%    100.00% # Writes before turning the bus around for reads
system.mem_ctrls.wrPerTurnAround::total         49916                       # Writes before turning the bus around for reads
system.mem_ctrls.totQLat                  25008749420                       # Total ticks spent queuing
system.mem_ctrls.totMemAccLat             52401655670                       # Total ticks spent from burst creation until serviced by the DRAM
system.mem_ctrls.totBusLat                 7304775000                       # Total ticks spent in databus transfers
system.mem_ctrls.avgQLat                     17118.08                       # Average queueing delay per DRAM burst
system.mem_ctrls.avgBusLat                    5000.00                       # Average bus latency per DRAM burst
system.mem_ctrls.avgMemAccLat                35868.08                       # Average memory access latency per DRAM burst
system.mem_ctrls.avgRdBW                        22.71                       # Average DRAM read bandwidth in MiByte/s
system.mem_ctrls.avgWrBW                        12.45                       # Average achieved write bandwidth in MiByte/s
system.mem_ctrls.avgRdBWSys                     22.72                       # Average system read bandwidth in MiByte/s
system.mem_ctrls.avgWrBWSys                     12.45                       # Average system write bandwidth in MiByte/s
system.mem_ctrls.peakBW                      12800.00                       # Theoretical peak bandwidth in MiByte/s
system.mem_ctrls.busUtil                         0.27                       # Data bus utilization in percentage
system.mem_ctrls.busUtilRead                     0.18                       # Data bus utilization in percentage for reads
system.mem_ctrls.busUtilWrite                    0.10                       # Data bus utilization in percentage for writes
system.mem_ctrls.avgRdQLen                       1.00                       # Average read queue length when enqueuing
system.mem_ctrls.avgWrQLen                      25.47                       # Average write queue length when enqueuing
system.mem_ctrls.readRowHits                   748801                       # Number of row buffer hits during reads
system.mem_ctrls.writeRowHits                  249625                       # Number of row buffer hits during writes
system.mem_ctrls.readRowHitRate                 51.25                       # Row buffer hit rate for reads
system.mem_ctrls.writeRowHitRate                31.16                       # Row buffer hit rate for writes
system.mem_ctrls.avgGap                    1819726.41                       # Average gap between requests
system.mem_ctrls.pageHitRate                    44.14                       # Row buffer hit rate, read and write combined
system.mem_ctrls_0.actEnergy               4659575760                       # Energy for activate commands per rank (pJ)
system.mem_ctrls_0.preEnergy               2542427250                       # Energy for precharge commands per rank (pJ)
system.mem_ctrls_0.readEnergy              5649680400                       # Energy for read commands per rank (pJ)
system.mem_ctrls_0.writeEnergy             2539032480                       # Energy for write commands per rank (pJ)
system.mem_ctrls_0.refreshEnergy         269215390080                       # Energy for refresh commands per rank (pJ)
system.mem_ctrls_0.actBackEnergy         466561528290                       # Energy for active background per rank (pJ)
system.mem_ctrls_0.preBackEnergy         2063810611500                       # Energy for precharge background per rank (pJ)
system.mem_ctrls_0.totalEnergy           2814978245760                       # Total energy per rank (pJ)
system.mem_ctrls_0.averagePower            682.950122                       # Core power per rank (mW)
system.mem_ctrls_0.memoryStateTime::IDLE 3429132677000                       # Time in different power states
system.mem_ctrls_0.memoryStateTime::REF  137506980000                       # Time in different power states
system.mem_ctrls_0.memoryStateTime::PRE_PDN            0                       # Time in different power states
system.mem_ctrls_0.memoryStateTime::ACT  551299672500                       # Time in different power states
system.mem_ctrls_0.memoryStateTime::ACT_PDN            0                       # Time in different power states
system.mem_ctrls_1.actEnergy               4922293320                       # Energy for activate commands per rank (pJ)
system.mem_ctrls_1.preEnergy               2685775125                       # Energy for precharge commands per rank (pJ)
system.mem_ctrls_1.readEnergy              5868493800                       # Energy for read commands per rank (pJ)
system.mem_ctrls_1.writeEnergy             2651505840                       # Energy for write commands per rank (pJ)
system.mem_ctrls_1.refreshEnergy         269215390080                       # Energy for refresh commands per rank (pJ)
system.mem_ctrls_1.actBackEnergy         473177337030                       # Energy for active background per rank (pJ)
system.mem_ctrls_1.preBackEnergy         2058007270500                       # Energy for precharge background per rank (pJ)
system.mem_ctrls_1.totalEnergy           2816528065695                       # Total energy per rank (pJ)
system.mem_ctrls_1.averagePower            683.326128                       # Core power per rank (mW)
system.mem_ctrls_1.memoryStateTime::IDLE 3419540837751                       # Time in different power states
system.mem_ctrls_1.memoryStateTime::REF  137506980000                       # Time in different power states
system.mem_ctrls_1.memoryStateTime::PRE_PDN            0                       # Time in different power states
system.mem_ctrls_1.memoryStateTime::ACT  560889578499                       # Time in different power states
system.mem_ctrls_1.memoryStateTime::ACT_PDN            0                       # Time in different power states
system.cpu_voltage_domain.voltage                   1                       # Voltage in Volts
system.cpu_clk_domain.clock                       500                       # Clock period in ticks
system.cpu0.apic_clk_domain.clock                8000                       # Clock period in ticks
system.cpu0.numCycles                      8238036827                       # number of cpu cycles simulated
system.cpu0.numWorkItemsStarted                     0                       # number of work items this cpu started
system.cpu0.numWorkItemsCompleted                   0                       # number of work items this cpu completed
system.cpu0.kern.inst.arm                           0                       # number of arm instructions executed
system.cpu0.kern.inst.quiesce                       0                       # number of quiesce instructions executed
system.cpu0.committedInsts                    3405330                       # Number of instructions committed
system.cpu0.committedOps                      7407170                       # Number of ops (including micro ops) committed
system.cpu0.num_int_alu_accesses              7246582                       # Number of integer alu accesses
system.cpu0.num_fp_alu_accesses                    39                       # Number of float alu accesses
system.cpu0.num_func_calls                     217112                       # number of times a function call or return occured
system.cpu0.num_conditional_control_insts       495241                       # number of instructions that are conditional controls
system.cpu0.num_int_insts                     7246582                       # number of integer instructions
system.cpu0.num_fp_insts                           39                       # number of float instructions
system.cpu0.num_int_register_reads           14720809                       # number of times the integer registers were read
system.cpu0.num_int_register_writes           6004521                       # number of times the integer registers were written
system.cpu0.num_fp_register_reads                  63                       # number of times the floating registers were read
system.cpu0.num_fp_register_writes                 31                       # number of times the floating registers were written
system.cpu0.num_cc_register_reads             4117462                       # number of times the CC registers were read
system.cpu0.num_cc_register_writes            2222093                       # number of times the CC registers were written
system.cpu0.num_mem_refs                      1742720                       # number of memory refs
system.cpu0.num_load_insts                    1075320                       # Number of load instructions
system.cpu0.num_store_insts                    667400                       # Number of store instructions
system.cpu0.num_idle_cycles              8220387670.898144                       # Number of idle cycles
system.cpu0.num_busy_cycles              17649156.101856                       # Number of busy cycles
system.cpu0.not_idle_fraction                0.002142                       # Percentage of non-idle cycles
system.cpu0.idle_fraction                    0.997858                       # Percentage of idle cycles
system.cpu0.Branches                           778676                       # Number of branches fetched
system.cpu0.op_class::No_OpClass               129763      1.75%      1.75% # Class of executed instruction
system.cpu0.op_class::IntAlu                  5477081     73.94%     75.69% # Class of executed instruction
system.cpu0.op_class::IntMult                   13828      0.19%     75.88% # Class of executed instruction
system.cpu0.op_class::IntDiv                    43770      0.59%     76.47% # Class of executed instruction
system.cpu0.op_class::FloatAdd                     30      0.00%     76.47% # Class of executed instruction
system.cpu0.op_class::FloatCmp                      0      0.00%     76.47% # Class of executed instruction
system.cpu0.op_class::FloatCvt                      0      0.00%     76.47% # Class of executed instruction
system.cpu0.op_class::FloatMult                     0      0.00%     76.47% # Class of executed instruction
system.cpu0.op_class::FloatDiv                      0      0.00%     76.47% # Class of executed instruction
system.cpu0.op_class::FloatSqrt                     0      0.00%     76.47% # Class of executed instruction
system.cpu0.op_class::SimdAdd                       0      0.00%     76.47% # Class of executed instruction
system.cpu0.op_class::SimdAddAcc                    0      0.00%     76.47% # Class of executed instruction
system.cpu0.op_class::SimdAlu                       0      0.00%     76.47% # Class of executed instruction
system.cpu0.op_class::SimdCmp                       0      0.00%     76.47% # Class of executed instruction
system.cpu0.op_class::SimdCvt                       0      0.00%     76.47% # Class of executed instruction
system.cpu0.op_class::SimdMisc                      0      0.00%     76.47% # Class of executed instruction
system.cpu0.op_class::SimdMult                      0      0.00%     76.47% # Class of executed instruction
system.cpu0.op_class::SimdMultAcc                   0      0.00%     76.47% # Class of executed instruction
system.cpu0.op_class::SimdShift                     0      0.00%     76.47% # Class of executed instruction
system.cpu0.op_class::SimdShiftAcc                  0      0.00%     76.47% # Class of executed instruction
system.cpu0.op_class::SimdSqrt                      0      0.00%     76.47% # Class of executed instruction
system.cpu0.op_class::SimdFloatAdd                  0      0.00%     76.47% # Class of executed instruction
system.cpu0.op_class::SimdFloatAlu                  0      0.00%     76.47% # Class of executed instruction
system.cpu0.op_class::SimdFloatCmp                  0      0.00%     76.47% # Class of executed instruction
system.cpu0.op_class::SimdFloatCvt                  0      0.00%     76.47% # Class of executed instruction
system.cpu0.op_class::SimdFloatDiv                  0      0.00%     76.47% # Class of executed instruction
system.cpu0.op_class::SimdFloatMisc                 0      0.00%     76.47% # Class of executed instruction
system.cpu0.op_class::SimdFloatMult                 0      0.00%     76.47% # Class of executed instruction
system.cpu0.op_class::SimdFloatMultAcc              0      0.00%     76.47% # Class of executed instruction
system.cpu0.op_class::SimdFloatSqrt                 0      0.00%     76.47% # Class of executed instruction
system.cpu0.op_class::MemRead                 1075320     14.52%     90.99% # Class of executed instruction
system.cpu0.op_class::MemWrite                 667400      9.01%    100.00% # Class of executed instruction
system.cpu0.op_class::IprAccess                     0      0.00%    100.00% # Class of executed instruction
system.cpu0.op_class::InstPrefetch                  0      0.00%    100.00% # Class of executed instruction
system.cpu0.op_class::total                   7407192                       # Class of executed instruction
system.cpu1.apic_clk_domain.clock                8000                       # Clock period in ticks
system.cpu1.numCycles                      8238033444                       # number of cpu cycles simulated
system.cpu1.numWorkItemsStarted                     0                       # number of work items this cpu started
system.cpu1.numWorkItemsCompleted                   0                       # number of work items this cpu completed
system.cpu1.kern.inst.arm                           0                       # number of arm instructions executed
system.cpu1.kern.inst.quiesce                       0                       # number of quiesce instructions executed
system.cpu1.committedInsts                 2239583417                       # Number of instructions committed
system.cpu1.committedOps                   3132128760                       # Number of ops (including micro ops) committed
system.cpu1.num_int_alu_accesses           1365170548                       # Number of integer alu accesses
system.cpu1.num_fp_alu_accesses            2127680380                       # Number of float alu accesses
system.cpu1.num_func_calls                    4841962                       # number of times a function call or return occured
system.cpu1.num_conditional_control_insts    125355326                       # number of instructions that are conditional controls
system.cpu1.num_int_insts                  1365170548                       # number of integer instructions
system.cpu1.num_fp_insts                   2127680380                       # number of float instructions
system.cpu1.num_int_register_reads         2745872552                       # number of times the integer registers were read
system.cpu1.num_int_register_writes         828614846                       # number of times the integer registers were written
system.cpu1.num_fp_register_reads          4601234200                       # number of times the floating registers were read
system.cpu1.num_fp_register_writes         2077617928                       # number of times the floating registers were written
system.cpu1.num_cc_register_reads           735984161                       # number of times the CC registers were read
system.cpu1.num_cc_register_writes          430195144                       # number of times the CC registers were written
system.cpu1.num_mem_refs                    408385039                       # number of memory refs
system.cpu1.num_load_insts                  353644132                       # Number of load instructions
system.cpu1.num_store_insts                  54740907                       # Number of store instructions
system.cpu1.num_idle_cycles              5385050.541604                       # Number of idle cycles
system.cpu1.num_busy_cycles              8232648393.458396                       # Number of busy cycles
system.cpu1.not_idle_fraction                0.999346                       # Percentage of non-idle cycles
system.cpu1.idle_fraction                    0.000654                       # Percentage of idle cycles
system.cpu1.Branches                        163327575                       # Number of branches fetched
system.cpu1.op_class::No_OpClass              2282794      0.07%      0.07% # Class of executed instruction
system.cpu1.op_class::IntAlu               1676792295     53.54%     53.61% # Class of executed instruction
system.cpu1.op_class::IntMult                   82505      0.00%     53.61% # Class of executed instruction
system.cpu1.op_class::IntDiv                    99049      0.00%     53.61% # Class of executed instruction
system.cpu1.op_class::FloatAdd             1044495741     33.35%     86.96% # Class of executed instruction
system.cpu1.op_class::FloatCmp                      0      0.00%     86.96% # Class of executed instruction
system.cpu1.op_class::FloatCvt                      0      0.00%     86.96% # Class of executed instruction
system.cpu1.op_class::FloatMult                     0      0.00%     86.96% # Class of executed instruction
system.cpu1.op_class::FloatDiv                      0      0.00%     86.96% # Class of executed instruction
system.cpu1.op_class::FloatSqrt                     0      0.00%     86.96% # Class of executed instruction
system.cpu1.op_class::SimdAdd                       0      0.00%     86.96% # Class of executed instruction
system.cpu1.op_class::SimdAddAcc                    0      0.00%     86.96% # Class of executed instruction
system.cpu1.op_class::SimdAlu                       0      0.00%     86.96% # Class of executed instruction
system.cpu1.op_class::SimdCmp                       0      0.00%     86.96% # Class of executed instruction
system.cpu1.op_class::SimdCvt                       0      0.00%     86.96% # Class of executed instruction
system.cpu1.op_class::SimdMisc                      0      0.00%     86.96% # Class of executed instruction
system.cpu1.op_class::SimdMult                      0      0.00%     86.96% # Class of executed instruction
system.cpu1.op_class::SimdMultAcc                   0      0.00%     86.96% # Class of executed instruction
system.cpu1.op_class::SimdShift                     0      0.00%     86.96% # Class of executed instruction
system.cpu1.op_class::SimdShiftAcc                  0      0.00%     86.96% # Class of executed instruction
system.cpu1.op_class::SimdSqrt                      0      0.00%     86.96% # Class of executed instruction
system.cpu1.op_class::SimdFloatAdd                  0      0.00%     86.96% # Class of executed instruction
system.cpu1.op_class::SimdFloatAlu                  0      0.00%     86.96% # Class of executed instruction
system.cpu1.op_class::SimdFloatCmp                  0      0.00%     86.96% # Class of executed instruction
system.cpu1.op_class::SimdFloatCvt                  0      0.00%     86.96% # Class of executed instruction
system.cpu1.op_class::SimdFloatDiv                  0      0.00%     86.96% # Class of executed instruction
system.cpu1.op_class::SimdFloatMisc                 0      0.00%     86.96% # Class of executed instruction
system.cpu1.op_class::SimdFloatMult                 0      0.00%     86.96% # Class of executed instruction
system.cpu1.op_class::SimdFloatMultAcc              0      0.00%     86.96% # Class of executed instruction
system.cpu1.op_class::SimdFloatSqrt                 0      0.00%     86.96% # Class of executed instruction
system.cpu1.op_class::MemRead               353644132     11.29%     98.25% # Class of executed instruction
system.cpu1.op_class::MemWrite               54740907      1.75%    100.00% # Class of executed instruction
system.cpu1.op_class::IprAccess                     0      0.00%    100.00% # Class of executed instruction
system.cpu1.op_class::InstPrefetch                  0      0.00%    100.00% # Class of executed instruction
system.cpu1.op_class::total                3132137423                       # Class of executed instruction
system.cpu2.apic_clk_domain.clock                8000                       # Clock period in ticks
system.cpu2.numCycles                      8235221656                       # number of cpu cycles simulated
system.cpu2.numWorkItemsStarted                     0                       # number of work items this cpu started
system.cpu2.numWorkItemsCompleted                   0                       # number of work items this cpu completed
system.cpu2.kern.inst.arm                           0                       # number of arm instructions executed
system.cpu2.kern.inst.quiesce                       0                       # number of quiesce instructions executed
system.cpu2.committedInsts                    2890876                       # Number of instructions committed
system.cpu2.committedOps                      6245880                       # Number of ops (including micro ops) committed
system.cpu2.num_int_alu_accesses              6107720                       # Number of integer alu accesses
system.cpu2.num_fp_alu_accesses                     0                       # Number of float alu accesses
system.cpu2.num_func_calls                     172618                       # number of times a function call or return occured
system.cpu2.num_conditional_control_insts       438445                       # number of instructions that are conditional controls
system.cpu2.num_int_insts                     6107720                       # number of integer instructions
system.cpu2.num_fp_insts                            0                       # number of float instructions
system.cpu2.num_int_register_reads           12414139                       # number of times the integer registers were read
system.cpu2.num_int_register_writes           5070746                       # number of times the integer registers were written
system.cpu2.num_fp_register_reads                   0                       # number of times the floating registers were read
system.cpu2.num_fp_register_writes                  0                       # number of times the floating registers were written
system.cpu2.num_cc_register_reads             3512664                       # number of times the CC registers were read
system.cpu2.num_cc_register_writes            1843899                       # number of times the CC registers were written
system.cpu2.num_mem_refs                      1487184                       # number of memory refs
system.cpu2.num_load_insts                     924875                       # Number of load instructions
system.cpu2.num_store_insts                    562309                       # Number of store instructions
system.cpu2.num_idle_cycles              8220086003.139092                       # Number of idle cycles
system.cpu2.num_busy_cycles              15135652.860907                       # Number of busy cycles
system.cpu2.not_idle_fraction                0.001838                       # Percentage of non-idle cycles
system.cpu2.idle_fraction                    0.998162                       # Percentage of idle cycles
system.cpu2.Branches                           667212                       # Number of branches fetched
system.cpu2.op_class::No_OpClass               117989      1.89%      1.89% # Class of executed instruction
system.cpu2.op_class::IntAlu                  4585933     73.42%     75.31% # Class of executed instruction
system.cpu2.op_class::IntMult                   12749      0.20%     75.52% # Class of executed instruction
system.cpu2.op_class::IntDiv                    42028      0.67%     76.19% # Class of executed instruction
system.cpu2.op_class::FloatAdd                      0      0.00%     76.19% # Class of executed instruction
system.cpu2.op_class::FloatCmp                      0      0.00%     76.19% # Class of executed instruction
system.cpu2.op_class::FloatCvt                      0      0.00%     76.19% # Class of executed instruction
system.cpu2.op_class::FloatMult                     0      0.00%     76.19% # Class of executed instruction
system.cpu2.op_class::FloatDiv                      0      0.00%     76.19% # Class of executed instruction
system.cpu2.op_class::FloatSqrt                     0      0.00%     76.19% # Class of executed instruction
system.cpu2.op_class::SimdAdd                       0      0.00%     76.19% # Class of executed instruction
system.cpu2.op_class::SimdAddAcc                    0      0.00%     76.19% # Class of executed instruction
system.cpu2.op_class::SimdAlu                       0      0.00%     76.19% # Class of executed instruction
system.cpu2.op_class::SimdCmp                       0      0.00%     76.19% # Class of executed instruction
system.cpu2.op_class::SimdCvt                       0      0.00%     76.19% # Class of executed instruction
system.cpu2.op_class::SimdMisc                      0      0.00%     76.19% # Class of executed instruction
system.cpu2.op_class::SimdMult                      0      0.00%     76.19% # Class of executed instruction
system.cpu2.op_class::SimdMultAcc                   0      0.00%     76.19% # Class of executed instruction
system.cpu2.op_class::SimdShift                     0      0.00%     76.19% # Class of executed instruction
system.cpu2.op_class::SimdShiftAcc                  0      0.00%     76.19% # Class of executed instruction
system.cpu2.op_class::SimdSqrt                      0      0.00%     76.19% # Class of executed instruction
system.cpu2.op_class::SimdFloatAdd                  0      0.00%     76.19% # Class of executed instruction
system.cpu2.op_class::SimdFloatAlu                  0      0.00%     76.19% # Class of executed instruction
system.cpu2.op_class::SimdFloatCmp                  0      0.00%     76.19% # Class of executed instruction
system.cpu2.op_class::SimdFloatCvt                  0      0.00%     76.19% # Class of executed instruction
system.cpu2.op_class::SimdFloatDiv                  0      0.00%     76.19% # Class of executed instruction
system.cpu2.op_class::SimdFloatMisc                 0      0.00%     76.19% # Class of executed instruction
system.cpu2.op_class::SimdFloatMult                 0      0.00%     76.19% # Class of executed instruction
system.cpu2.op_class::SimdFloatMultAcc              0      0.00%     76.19% # Class of executed instruction
system.cpu2.op_class::SimdFloatSqrt                 0      0.00%     76.19% # Class of executed instruction
system.cpu2.op_class::MemRead                  924875     14.81%     91.00% # Class of executed instruction
system.cpu2.op_class::MemWrite                 562309      9.00%    100.00% # Class of executed instruction
system.cpu2.op_class::IprAccess                     0      0.00%    100.00% # Class of executed instruction
system.cpu2.op_class::InstPrefetch                  0      0.00%    100.00% # Class of executed instruction
system.cpu2.op_class::total                   6245883                       # Class of executed instruction
system.cpu3.apic_clk_domain.clock                8000                       # Clock period in ticks
system.cpu3.numCycles                      8235634741                       # number of cpu cycles simulated
system.cpu3.numWorkItemsStarted                     0                       # number of work items this cpu started
system.cpu3.numWorkItemsCompleted                   0                       # number of work items this cpu completed
system.cpu3.kern.inst.arm                           0                       # number of arm instructions executed
system.cpu3.kern.inst.quiesce                       0                       # number of quiesce instructions executed
system.cpu3.committedInsts                    3871139                       # Number of instructions committed
system.cpu3.committedOps                      8079874                       # Number of ops (including micro ops) committed
system.cpu3.num_int_alu_accesses              7915365                       # Number of integer alu accesses
system.cpu3.num_fp_alu_accesses                  1814                       # Number of float alu accesses
system.cpu3.num_func_calls                     209022                       # number of times a function call or return occured
system.cpu3.num_conditional_control_insts       602804                       # number of instructions that are conditional controls
system.cpu3.num_int_insts                     7915365                       # number of integer instructions
system.cpu3.num_fp_insts                         1814                       # number of float instructions
system.cpu3.num_int_register_reads           16056440                       # number of times the integer registers were read
system.cpu3.num_int_register_writes           6534095                       # number of times the integer registers were written
system.cpu3.num_fp_register_reads                3048                       # number of times the floating registers were read
system.cpu3.num_fp_register_writes               1440                       # number of times the floating registers were written
system.cpu3.num_cc_register_reads             4657728                       # number of times the CC registers were read
system.cpu3.num_cc_register_writes            2501526                       # number of times the CC registers were written
system.cpu3.num_mem_refs                      1893718                       # number of memory refs
system.cpu3.num_load_insts                    1181381                       # Number of load instructions
system.cpu3.num_store_insts                    712337                       # Number of store instructions
system.cpu3.num_idle_cycles              8215267388.796944                       # Number of idle cycles
system.cpu3.num_busy_cycles              20367352.203056                       # Number of busy cycles
system.cpu3.not_idle_fraction                0.002473                       # Percentage of non-idle cycles
system.cpu3.idle_fraction                    0.997527                       # Percentage of idle cycles
system.cpu3.Branches                           878250                       # Number of branches fetched
system.cpu3.op_class::No_OpClass               128515      1.59%      1.59% # Class of executed instruction
system.cpu3.op_class::IntAlu                  5996722     74.22%     75.81% # Class of executed instruction
system.cpu3.op_class::IntMult                   13958      0.17%     75.98% # Class of executed instruction
system.cpu3.op_class::IntDiv                    45684      0.57%     76.55% # Class of executed instruction
system.cpu3.op_class::FloatAdd                   1368      0.02%     76.56% # Class of executed instruction
system.cpu3.op_class::FloatCmp                      0      0.00%     76.56% # Class of executed instruction
system.cpu3.op_class::FloatCvt                      0      0.00%     76.56% # Class of executed instruction
system.cpu3.op_class::FloatMult                     0      0.00%     76.56% # Class of executed instruction
system.cpu3.op_class::FloatDiv                      0      0.00%     76.56% # Class of executed instruction
system.cpu3.op_class::FloatSqrt                     0      0.00%     76.56% # Class of executed instruction
system.cpu3.op_class::SimdAdd                       0      0.00%     76.56% # Class of executed instruction
system.cpu3.op_class::SimdAddAcc                    0      0.00%     76.56% # Class of executed instruction
system.cpu3.op_class::SimdAlu                       0      0.00%     76.56% # Class of executed instruction
system.cpu3.op_class::SimdCmp                       0      0.00%     76.56% # Class of executed instruction
system.cpu3.op_class::SimdCvt                       0      0.00%     76.56% # Class of executed instruction
system.cpu3.op_class::SimdMisc                      0      0.00%     76.56% # Class of executed instruction
system.cpu3.op_class::SimdMult                      0      0.00%     76.56% # Class of executed instruction
system.cpu3.op_class::SimdMultAcc                   0      0.00%     76.56% # Class of executed instruction
system.cpu3.op_class::SimdShift                     0      0.00%     76.56% # Class of executed instruction
system.cpu3.op_class::SimdShiftAcc                  0      0.00%     76.56% # Class of executed instruction
system.cpu3.op_class::SimdSqrt                      0      0.00%     76.56% # Class of executed instruction
system.cpu3.op_class::SimdFloatAdd                  0      0.00%     76.56% # Class of executed instruction
system.cpu3.op_class::SimdFloatAlu                  0      0.00%     76.56% # Class of executed instruction
system.cpu3.op_class::SimdFloatCmp                  0      0.00%     76.56% # Class of executed instruction
system.cpu3.op_class::SimdFloatCvt                  0      0.00%     76.56% # Class of executed instruction
system.cpu3.op_class::SimdFloatDiv                  0      0.00%     76.56% # Class of executed instruction
system.cpu3.op_class::SimdFloatMisc                 0      0.00%     76.56% # Class of executed instruction
system.cpu3.op_class::SimdFloatMult                 0      0.00%     76.56% # Class of executed instruction
system.cpu3.op_class::SimdFloatMultAcc              0      0.00%     76.56% # Class of executed instruction
system.cpu3.op_class::SimdFloatSqrt                 0      0.00%     76.56% # Class of executed instruction
system.cpu3.op_class::MemRead                 1181381     14.62%     91.18% # Class of executed instruction
system.cpu3.op_class::MemWrite                 712337      8.82%    100.00% # Class of executed instruction
system.cpu3.op_class::IprAccess                     0      0.00%    100.00% # Class of executed instruction
system.cpu3.op_class::InstPrefetch                  0      0.00%    100.00% # Class of executed instruction
system.cpu3.op_class::total                   8079965                       # Class of executed instruction
system.iobus.trans_dist::ReadReq                  202                       # Transaction distribution
system.iobus.trans_dist::ReadResp                 202                       # Transaction distribution
system.iobus.trans_dist::WriteReq                4264                       # Transaction distribution
system.iobus.trans_dist::WriteResp               4264                       # Transaction distribution
system.iobus.trans_dist::MessageReq                20                       # Transaction distribution
system.iobus.trans_dist::MessageResp               20                       # Transaction distribution
system.iobus.pkt_count_system.pc.south_bridge.io_apic.int_master::system.ruby.l0_cntrl0.sequencer.pio-slave-port            6                       # Packet count per connected master and slave (bytes)
system.iobus.pkt_count_system.pc.south_bridge.io_apic.int_master::system.ruby.l0_cntrl1.sequencer.pio-slave-port            4                       # Packet count per connected master and slave (bytes)
system.iobus.pkt_count_system.pc.south_bridge.io_apic.int_master::system.ruby.l0_cntrl2.sequencer.pio-slave-port            6                       # Packet count per connected master and slave (bytes)
system.iobus.pkt_count_system.pc.south_bridge.io_apic.int_master::system.ruby.l0_cntrl3.sequencer.pio-slave-port            6                       # Packet count per connected master and slave (bytes)
system.iobus.pkt_count_system.pc.south_bridge.io_apic.int_master::total           22                       # Packet count per connected master and slave (bytes)
system.iobus.pkt_count_system.ruby.l0_cntrl0.sequencer.mem-master-port::system.pc.south_bridge.ide.pio           46                       # Packet count per connected master and slave (bytes)
system.iobus.pkt_count_system.ruby.l0_cntrl0.sequencer.mem-master-port::system.pc.south_bridge.io_apic.pio           14                       # Packet count per connected master and slave (bytes)
system.iobus.pkt_count_system.ruby.l0_cntrl0.sequencer.mem-master-port::system.pc.com_1.pio           22                       # Packet count per connected master and slave (bytes)
system.iobus.pkt_count_system.ruby.l0_cntrl0.sequencer.mem-master-port::system.ruby.l0_cntrl0.sequencer.pio-slave-port         2076                       # Packet count per connected master and slave (bytes)
system.iobus.pkt_count_system.ruby.l0_cntrl0.sequencer.mem-master-port::system.ruby.l0_cntrl1.sequencer.pio-slave-port            2                       # Packet count per connected master and slave (bytes)
system.iobus.pkt_count_system.ruby.l0_cntrl0.sequencer.mem-master-port::total         2160                       # Packet count per connected master and slave (bytes)
system.iobus.pkt_count_system.ruby.l0_cntrl1.sequencer.mem-master-port::system.pc.south_bridge.ide.pio           34                       # Packet count per connected master and slave (bytes)
system.iobus.pkt_count_system.ruby.l0_cntrl1.sequencer.mem-master-port::system.pc.south_bridge.io_apic.pio           14                       # Packet count per connected master and slave (bytes)
system.iobus.pkt_count_system.ruby.l0_cntrl1.sequencer.mem-master-port::system.pc.com_1.pio          174                       # Packet count per connected master and slave (bytes)
system.iobus.pkt_count_system.ruby.l0_cntrl1.sequencer.mem-master-port::system.ruby.l0_cntrl0.sequencer.pio-slave-port            2                       # Packet count per connected master and slave (bytes)
system.iobus.pkt_count_system.ruby.l0_cntrl1.sequencer.mem-master-port::system.ruby.l0_cntrl1.sequencer.pio-slave-port         2092                       # Packet count per connected master and slave (bytes)
system.iobus.pkt_count_system.ruby.l0_cntrl1.sequencer.mem-master-port::system.ruby.l0_cntrl2.sequencer.pio-slave-port            6                       # Packet count per connected master and slave (bytes)
system.iobus.pkt_count_system.ruby.l0_cntrl1.sequencer.mem-master-port::total         2322                       # Packet count per connected master and slave (bytes)
system.iobus.pkt_count_system.ruby.l0_cntrl2.sequencer.mem-master-port::system.pc.south_bridge.io_apic.pio           22                       # Packet count per connected master and slave (bytes)
system.iobus.pkt_count_system.ruby.l0_cntrl2.sequencer.mem-master-port::system.pc.com_1.pio          244                       # Packet count per connected master and slave (bytes)
system.iobus.pkt_count_system.ruby.l0_cntrl2.sequencer.mem-master-port::system.ruby.l0_cntrl2.sequencer.pio-slave-port         2080                       # Packet count per connected master and slave (bytes)
system.iobus.pkt_count_system.ruby.l0_cntrl2.sequencer.mem-master-port::system.ruby.l0_cntrl3.sequencer.pio-slave-port            2                       # Packet count per connected master and slave (bytes)
system.iobus.pkt_count_system.ruby.l0_cntrl2.sequencer.mem-master-port::total         2348                       # Packet count per connected master and slave (bytes)
system.iobus.pkt_count_system.ruby.l0_cntrl3.sequencer.mem-master-port::system.pc.south_bridge.ide.pio           12                       # Packet count per connected master and slave (bytes)
system.iobus.pkt_count_system.ruby.l0_cntrl3.sequencer.mem-master-port::system.pc.south_bridge.io_apic.pio           16                       # Packet count per connected master and slave (bytes)
system.iobus.pkt_count_system.ruby.l0_cntrl3.sequencer.mem-master-port::system.ruby.l0_cntrl0.sequencer.pio-slave-port            2                       # Packet count per connected master and slave (bytes)
system.iobus.pkt_count_system.ruby.l0_cntrl3.sequencer.mem-master-port::system.ruby.l0_cntrl1.sequencer.pio-slave-port            2                       # Packet count per connected master and slave (bytes)
system.iobus.pkt_count_system.ruby.l0_cntrl3.sequencer.mem-master-port::system.ruby.l0_cntrl2.sequencer.pio-slave-port            2                       # Packet count per connected master and slave (bytes)
system.iobus.pkt_count_system.ruby.l0_cntrl3.sequencer.mem-master-port::system.ruby.l0_cntrl3.sequencer.pio-slave-port         2086                       # Packet count per connected master and slave (bytes)
system.iobus.pkt_count_system.ruby.l0_cntrl3.sequencer.mem-master-port::total         2120                       # Packet count per connected master and slave (bytes)
system.iobus.pkt_count::total                    8972                       # Packet count per connected master and slave (bytes)
system.iobus.pkt_size_system.pc.south_bridge.io_apic.int_master::system.ruby.l0_cntrl0.sequencer.pio-slave-port           12                       # Cumulative packet size per connected master and slave (bytes)
system.iobus.pkt_size_system.pc.south_bridge.io_apic.int_master::system.ruby.l0_cntrl1.sequencer.pio-slave-port            8                       # Cumulative packet size per connected master and slave (bytes)
system.iobus.pkt_size_system.pc.south_bridge.io_apic.int_master::system.ruby.l0_cntrl2.sequencer.pio-slave-port           12                       # Cumulative packet size per connected master and slave (bytes)
system.iobus.pkt_size_system.pc.south_bridge.io_apic.int_master::system.ruby.l0_cntrl3.sequencer.pio-slave-port           12                       # Cumulative packet size per connected master and slave (bytes)
system.iobus.pkt_size_system.pc.south_bridge.io_apic.int_master::total           44                       # Cumulative packet size per connected master and slave (bytes)
system.iobus.pkt_size_system.ruby.l0_cntrl0.sequencer.mem-master-port::system.pc.south_bridge.ide.pio           26                       # Cumulative packet size per connected master and slave (bytes)
system.iobus.pkt_size_system.ruby.l0_cntrl0.sequencer.mem-master-port::system.pc.south_bridge.io_apic.pio           28                       # Cumulative packet size per connected master and slave (bytes)
system.iobus.pkt_size_system.ruby.l0_cntrl0.sequencer.mem-master-port::system.pc.com_1.pio           11                       # Cumulative packet size per connected master and slave (bytes)
system.iobus.pkt_size_system.ruby.l0_cntrl0.sequencer.mem-master-port::system.ruby.l0_cntrl0.sequencer.pio-slave-port         4152                       # Cumulative packet size per connected master and slave (bytes)
system.iobus.pkt_size_system.ruby.l0_cntrl0.sequencer.mem-master-port::system.ruby.l0_cntrl1.sequencer.pio-slave-port            4                       # Cumulative packet size per connected master and slave (bytes)
system.iobus.pkt_size_system.ruby.l0_cntrl0.sequencer.mem-master-port::total         4221                       # Cumulative packet size per connected master and slave (bytes)
system.iobus.pkt_size_system.ruby.l0_cntrl1.sequencer.mem-master-port::system.pc.south_bridge.ide.pio           20                       # Cumulative packet size per connected master and slave (bytes)
system.iobus.pkt_size_system.ruby.l0_cntrl1.sequencer.mem-master-port::system.pc.south_bridge.io_apic.pio           28                       # Cumulative packet size per connected master and slave (bytes)
system.iobus.pkt_size_system.ruby.l0_cntrl1.sequencer.mem-master-port::system.pc.com_1.pio           87                       # Cumulative packet size per connected master and slave (bytes)
system.iobus.pkt_size_system.ruby.l0_cntrl1.sequencer.mem-master-port::system.ruby.l0_cntrl0.sequencer.pio-slave-port            4                       # Cumulative packet size per connected master and slave (bytes)
system.iobus.pkt_size_system.ruby.l0_cntrl1.sequencer.mem-master-port::system.ruby.l0_cntrl1.sequencer.pio-slave-port         4184                       # Cumulative packet size per connected master and slave (bytes)
system.iobus.pkt_size_system.ruby.l0_cntrl1.sequencer.mem-master-port::system.ruby.l0_cntrl2.sequencer.pio-slave-port           12                       # Cumulative packet size per connected master and slave (bytes)
system.iobus.pkt_size_system.ruby.l0_cntrl1.sequencer.mem-master-port::total         4335                       # Cumulative packet size per connected master and slave (bytes)
system.iobus.pkt_size_system.ruby.l0_cntrl2.sequencer.mem-master-port::system.pc.south_bridge.io_apic.pio           44                       # Cumulative packet size per connected master and slave (bytes)
system.iobus.pkt_size_system.ruby.l0_cntrl2.sequencer.mem-master-port::system.pc.com_1.pio          122                       # Cumulative packet size per connected master and slave (bytes)
system.iobus.pkt_size_system.ruby.l0_cntrl2.sequencer.mem-master-port::system.ruby.l0_cntrl2.sequencer.pio-slave-port         4160                       # Cumulative packet size per connected master and slave (bytes)
system.iobus.pkt_size_system.ruby.l0_cntrl2.sequencer.mem-master-port::system.ruby.l0_cntrl3.sequencer.pio-slave-port            4                       # Cumulative packet size per connected master and slave (bytes)
system.iobus.pkt_size_system.ruby.l0_cntrl2.sequencer.mem-master-port::total         4330                       # Cumulative packet size per connected master and slave (bytes)
system.iobus.pkt_size_system.ruby.l0_cntrl3.sequencer.mem-master-port::system.pc.south_bridge.ide.pio            6                       # Cumulative packet size per connected master and slave (bytes)
system.iobus.pkt_size_system.ruby.l0_cntrl3.sequencer.mem-master-port::system.pc.south_bridge.io_apic.pio           32                       # Cumulative packet size per connected master and slave (bytes)
system.iobus.pkt_size_system.ruby.l0_cntrl3.sequencer.mem-master-port::system.ruby.l0_cntrl0.sequencer.pio-slave-port            4                       # Cumulative packet size per connected master and slave (bytes)
system.iobus.pkt_size_system.ruby.l0_cntrl3.sequencer.mem-master-port::system.ruby.l0_cntrl1.sequencer.pio-slave-port            4                       # Cumulative packet size per connected master and slave (bytes)
system.iobus.pkt_size_system.ruby.l0_cntrl3.sequencer.mem-master-port::system.ruby.l0_cntrl2.sequencer.pio-slave-port            4                       # Cumulative packet size per connected master and slave (bytes)
system.iobus.pkt_size_system.ruby.l0_cntrl3.sequencer.mem-master-port::system.ruby.l0_cntrl3.sequencer.pio-slave-port         4172                       # Cumulative packet size per connected master and slave (bytes)
system.iobus.pkt_size_system.ruby.l0_cntrl3.sequencer.mem-master-port::total         4222                       # Cumulative packet size per connected master and slave (bytes)
system.iobus.pkt_size::total                    17152                       # Cumulative packet size per connected master and slave (bytes)
system.iobus.reqLayer2.occupancy                81500                       # Layer occupancy (ticks)
system.iobus.reqLayer2.utilization                0.0                       # Layer utilization (%)
system.iobus.reqLayer8.occupancy                57495                       # Layer occupancy (ticks)
system.iobus.reqLayer8.utilization                0.0                       # Layer utilization (%)
system.iobus.reqLayer12.occupancy              282500                       # Layer occupancy (ticks)
system.iobus.reqLayer12.utilization               0.0                       # Layer utilization (%)
system.iobus.reqLayer17.occupancy             2532498                       # Layer occupancy (ticks)
system.iobus.reqLayer17.utilization               0.0                       # Layer utilization (%)
system.iobus.reqLayer18.occupancy             2870469                       # Layer occupancy (ticks)
system.iobus.reqLayer18.utilization               0.0                       # Layer utilization (%)
system.iobus.reqLayer19.occupancy             2542500                       # Layer occupancy (ticks)
system.iobus.reqLayer19.utilization               0.0                       # Layer utilization (%)
system.iobus.reqLayer20.occupancy             2549497                       # Layer occupancy (ticks)
system.iobus.reqLayer20.utilization               0.0                       # Layer utilization (%)
system.iobus.respLayer0.occupancy               15498                       # Layer occupancy (ticks)
system.iobus.respLayer0.utilization               0.0                       # Layer utilization (%)
system.iobus.respLayer2.occupancy             1619000                       # Layer occupancy (ticks)
system.iobus.respLayer2.utilization               0.0                       # Layer utilization (%)
system.iobus.respLayer4.occupancy             1760000                       # Layer occupancy (ticks)
system.iobus.respLayer4.utilization               0.0                       # Layer utilization (%)
system.iobus.respLayer6.occupancy             1789500                       # Layer occupancy (ticks)
system.iobus.respLayer6.utilization               0.0                       # Layer utilization (%)
system.iobus.respLayer8.occupancy             1592500                       # Layer occupancy (ticks)
system.iobus.respLayer8.utilization               0.0                       # Layer utilization (%)
system.pc.south_bridge.ide.disks.dma_read_full_pages            1                       # Number of full page size DMA reads (not PRD).
system.pc.south_bridge.ide.disks.dma_read_bytes         4096                       # Number of bytes transfered via DMA reads (not PRD).
system.pc.south_bridge.ide.disks.dma_read_txs            1                       # Number of DMA read transactions (not PRD).
system.pc.south_bridge.ide.disks.dma_write_full_pages           24                       # Number of full page size DMA writes.
system.pc.south_bridge.ide.disks.dma_write_bytes        98304                       # Number of bytes transfered via DMA writes.
system.pc.south_bridge.ide.disks.dma_write_txs           24                       # Number of DMA write transactions.
system.ruby.clk_domain.clock                      500                       # Clock period in ticks
system.ruby.delayHist::bucket_size                  4                       # delay histogram for all message
system.ruby.delayHist::max_bucket                  39                       # delay histogram for all message
system.ruby.delayHist::samples              129519457                       # delay histogram for all message
system.ruby.delayHist::mean                  0.110437                       # delay histogram for all message
system.ruby.delayHist::stdev                 0.933191                       # delay histogram for all message
system.ruby.delayHist                    |   127733847     98.62%     98.62% |        3267      0.00%     98.62% |     1781795      1.38%    100.00% |         152      0.00%    100.00% |         365      0.00%    100.00% |           8      0.00%    100.00% |          23      0.00%    100.00% |           0      0.00%    100.00% |           0      0.00%    100.00% |           0      0.00%    100.00% # delay histogram for all message
system.ruby.delayHist::total                129519457                       # delay histogram for all message
system.ruby.outstanding_req_hist_seqr::bucket_size            1                      
system.ruby.outstanding_req_hist_seqr::max_bucket            9                      
system.ruby.outstanding_req_hist_seqr::samples   3807059844                      
system.ruby.outstanding_req_hist_seqr::mean     1.000000                      
system.ruby.outstanding_req_hist_seqr::gmean     1.000000                      
system.ruby.outstanding_req_hist_seqr::stdev     0.000232                      
system.ruby.outstanding_req_hist_seqr    |           0      0.00%      0.00% |  3807059639    100.00%    100.00% |         205      0.00%    100.00% |           0      0.00%    100.00% |           0      0.00%    100.00% |           0      0.00%    100.00% |           0      0.00%    100.00% |           0      0.00%    100.00% |           0      0.00%    100.00% |           0      0.00%    100.00%
system.ruby.outstanding_req_hist_seqr::total   3807059844                      
system.ruby.latency_hist_seqr::bucket_size          256                      
system.ruby.latency_hist_seqr::max_bucket         2559                      
system.ruby.latency_hist_seqr::samples     3807059844                      
system.ruby.latency_hist_seqr::mean          1.175613                      
system.ruby.latency_hist_seqr::gmean         1.038212                      
system.ruby.latency_hist_seqr::stdev         3.560934                      
system.ruby.latency_hist_seqr            |  3806982528    100.00%    100.00% |       53933      0.00%    100.00% |       22502      0.00%    100.00% |         505      0.00%    100.00% |         356      0.00%    100.00% |          18      0.00%    100.00% |           2      0.00%    100.00% |           0      0.00%    100.00% |           0      0.00%    100.00% |           0      0.00%    100.00%
system.ruby.latency_hist_seqr::total       3807059844                      
system.ruby.hit_latency_hist_seqr::bucket_size            1                      
system.ruby.hit_latency_hist_seqr::max_bucket            9                      
system.ruby.hit_latency_hist_seqr::samples   3728943560                      
system.ruby.hit_latency_hist_seqr::mean             1                      
system.ruby.hit_latency_hist_seqr::gmean            1                      
[...]
system.ruby.L1Cache_Controller.Data_Exclusive::total      8782502                      
system.ruby.L1Cache_Controller.DataS_fromL1 |        8404     28.82%     28.82% |        2569      8.81%     37.63% |        8499     29.15%     66.78% |        9687     33.22%    100.00%
system.ruby.L1Cache_Controller.DataS_fromL1::total        29159                      
system.ruby.L1Cache_Controller.Data_all_Acks |       83291      8.00%      8.00% |      789637     75.81%     83.81% |       79684      7.65%     91.46% |       88978      8.54%    100.00%
system.ruby.L1Cache_Controller.Data_all_Acks::total      1041590                      
system.ruby.L1Cache_Controller.L0_Ack    |       73758      7.26%      7.26% |      793611     78.11%     85.37% |       74615      7.34%     92.71% |       74018      7.29%    100.00%
system.ruby.L1Cache_Controller.L0_Ack::total      1016002                      
system.ruby.L1Cache_Controller.Ack       |       19131     50.58%     50.58% |        9006     23.81%     74.40% |        4347     11.49%     85.89% |        5337     14.11%    100.00%
system.ruby.L1Cache_Controller.Ack::total        37821                      
system.ruby.L1Cache_Controller.Ack_all   |        8612     42.44%     42.44% |        4147     20.43%     62.87% |        3132     15.43%     78.30% |        4403     21.70%    100.00%
system.ruby.L1Cache_Controller.Ack_all::total        20294                      
system.ruby.L1Cache_Controller.WB_Ack    |       59180      0.63%      0.63% |     9228182     97.70%     98.33% |       71701      0.76%     99.09% |       86208      0.91%    100.00%
system.ruby.L1Cache_Controller.WB_Ack::total      9445271                      
system.ruby.L1Cache_Controller.I.Load    |      118194      1.29%      1.29% |     8769911     95.74%     97.03% |      129696      1.42%     98.45% |      142096      1.55%    100.00%
system.ruby.L1Cache_Controller.I.Load::total      9159897                      
system.ruby.L1Cache_Controller.I.Store   |       22886      3.28%      3.28% |      626614     89.80%     93.08% |       20428      2.93%     96.01% |       27847      3.99%    100.00%
system.ruby.L1Cache_Controller.I.Store::total       697775                      
system.ruby.L1Cache_Controller.I.Inv     |        5553     23.96%     23.96% |        8450     36.46%     60.43% |        3167     13.67%     74.09% |        6003     25.91%    100.00%
system.ruby.L1Cache_Controller.I.Inv::total        23173                      
system.ruby.L1Cache_Controller.S.Load    |      273239     26.43%     26.43% |      194357     18.80%     45.22% |      276091     26.70%     71.93% |      290247     28.07%    100.00%
system.ruby.L1Cache_Controller.S.Load::total      1033934                      
system.ruby.L1Cache_Controller.S.Store   |        5314     37.05%     37.05% |        2928     20.41%     57.46% |        2941     20.50%     77.97% |        3160     22.03%    100.00%
system.ruby.L1Cache_Controller.S.Store::total        14343                      
system.ruby.L1Cache_Controller.S.L0_Invalidate_Own |       62580     18.39%     18.39% |      162343     47.71%     66.09% |       55484     16.30%     82.40% |       59898     17.60%    100.00%
system.ruby.L1Cache_Controller.S.L0_Invalidate_Own::total       340305                      
system.ruby.L1Cache_Controller.S.L0_Invalidate_Else |        7487     22.56%     22.56% |        1939      5.84%     28.41% |       13307     40.11%     68.51% |       10447     31.49%    100.00%
system.ruby.L1Cache_Controller.S.L0_Invalidate_Else::total        33180                      
system.ruby.L1Cache_Controller.SS.Load   |        4521     42.09%     42.09% |         648      6.03%     48.13% |        3754     34.95%     83.08% |        1817     16.92%    100.00%
system.ruby.L1Cache_Controller.SS.Load::total        10740                      
system.ruby.L1Cache_Controller.SS.Store  |        1342     87.71%     87.71% |          43      2.81%     90.52% |          82      5.36%     95.88% |          63      4.12%    100.00%
system.ruby.L1Cache_Controller.SS.Store::total         1530                      
system.ruby.L1Cache_Controller.SS.Inv    |        9878     21.99%     21.99% |        2954      6.58%     28.56% |       16708     37.19%     65.75% |       15385     34.25%    100.00%
system.ruby.L1Cache_Controller.SS.Inv::total        44925                      
system.ruby.L1Cache_Controller.SS.L1_Replacement |       63393     18.34%     18.34% |      164520     47.59%     65.93% |       56186     16.25%     82.19% |       61579     17.81%    100.00%
system.ruby.L1Cache_Controller.SS.L1_Replacement::total       345678                      
system.ruby.L1Cache_Controller.E.WriteBack |       46440      0.55%      0.55% |     8303407     97.96%     98.50% |       58290      0.69%     99.19% |       68470      0.81%    100.00%
system.ruby.L1Cache_Controller.E.WriteBack::total      8476607                      
system.ruby.L1Cache_Controller.E.L0_Invalidate_Own |         456      0.15%      0.15% |      299618     99.07%     99.22% |        1584      0.52%     99.75% |         765      0.25%    100.00%
system.ruby.L1Cache_Controller.E.L0_Invalidate_Own::total       302423                      
system.ruby.L1Cache_Controller.E.L0_Invalidate_Else |         523     14.98%     14.98% |         127      3.64%     18.61% |        1952     55.90%     74.51% |         890     25.49%    100.00%
system.ruby.L1Cache_Controller.E.L0_Invalidate_Else::total         3492                      
system.ruby.L1Cache_Controller.EE.Inv    |         273     26.40%     26.40% |           1      0.10%     26.50% |         395     38.20%     64.70% |         365     35.30%    100.00%
system.ruby.L1Cache_Controller.EE.Inv::total         1034                      
system.ruby.L1Cache_Controller.EE.L1_Replacement |         381      0.13%      0.13% |      297975     99.14%     99.27% |        1488      0.50%     99.77% |         702      0.23%    100.00%
system.ruby.L1Cache_Controller.EE.L1_Replacement::total       300546                      
system.ruby.L1Cache_Controller.EE.Fwd_GETX |           3     25.00%     25.00% |           2     16.67%     41.67% |           3     25.00%     66.67% |           4     33.33%    100.00%
system.ruby.L1Cache_Controller.EE.Fwd_GETX::total           12                      
system.ruby.L1Cache_Controller.EE.Fwd_GETS |         153      7.68%      7.68% |         105      5.27%     12.96% |        1395     70.07%     83.02% |         338     16.98%    100.00%
system.ruby.L1Cache_Controller.EE.Fwd_GETS::total         1991                      
system.ruby.L1Cache_Controller.M.WriteBack |      215395      0.32%      0.32% |    67554099     99.01%     99.32% |      186835      0.27%     99.60% |      274064      0.40%    100.00%
system.ruby.L1Cache_Controller.M.WriteBack::total     68230393                      
system.ruby.L1Cache_Controller.M.L0_Invalidate_Own |        3994      1.11%      1.11% |      350073     97.06%     98.17% |        3432      0.95%     99.12% |        3172      0.88%    100.00%
system.ruby.L1Cache_Controller.M.L0_Invalidate_Own::total       360671                      
system.ruby.L1Cache_Controller.M.L0_Invalidate_Else |        5692     40.51%     40.51% |        1113      7.92%     48.43% |        3636     25.88%     74.31% |        3610     25.69%    100.00%
system.ruby.L1Cache_Controller.M.L0_Invalidate_Else::total        14051                      
system.ruby.L1Cache_Controller.MM.Load   |      146423      0.22%      0.22% |    65345729     99.32%     99.55% |      117422      0.18%     99.72% |      181436      0.28%    100.00%
system.ruby.L1Cache_Controller.MM.Load::total     65791010                      
system.ruby.L1Cache_Controller.MM.Store  |       49138      2.34%      2.34% |     1929962     91.88%     94.22% |       53029      2.52%     96.75% |       68320      3.25%    100.00%
system.ruby.L1Cache_Controller.MM.Store::total      2100449                      
system.ruby.L1Cache_Controller.MM.Inv    |        6192     40.80%     40.80% |         206      1.36%     42.15% |        4398     28.98%     71.13% |        4382     28.87%    100.00%
system.ruby.L1Cache_Controller.MM.Inv::total        15178                      
system.ruby.L1Cache_Controller.MM.L1_Replacement |       58799      0.64%      0.64% |     8930207     97.65%     98.30% |       70213      0.77%     99.06% |       85506      0.94%    100.00%
system.ruby.L1Cache_Controller.MM.L1_Replacement::total      9144725                      
system.ruby.L1Cache_Controller.MM.Fwd_GETX |        1946     34.94%     34.94% |         707     12.70%     47.64% |         775     13.92%     61.56% |        2141     38.44%    100.00%
system.ruby.L1Cache_Controller.MM.Fwd_GETX::total         5569                      
system.ruby.L1Cache_Controller.MM.Fwd_GETS |        8693     32.00%     32.00% |        3810     14.02%     46.02% |        6459     23.77%     69.80% |        8206     30.20%    100.00%
system.ruby.L1Cache_Controller.MM.Fwd_GETS::total        27168                      
system.ruby.L1Cache_Controller.IS.Data_Exclusive |       47429      0.54%      0.54% |     8603143     97.96%     98.50% |       61832      0.70%     99.20% |       70098      0.80%    100.00%
system.ruby.L1Cache_Controller.IS.Data_Exclusive::total      8782502                      
system.ruby.L1Cache_Controller.IS.DataS_fromL1 |        8404     28.82%     28.82% |        2569      8.81%     37.63% |        8499     29.15%     66.78% |        9687     33.22%    100.00%
system.ruby.L1Cache_Controller.IS.DataS_fromL1::total        29159                      
system.ruby.L1Cache_Controller.IS.Data_all_Acks |       62361     17.91%     17.91% |      164199     47.15%     65.06% |       59365     17.05%     82.11% |       62311     17.89%    100.00%
system.ruby.L1Cache_Controller.IS.Data_all_Acks::total       348236                      
system.ruby.L1Cache_Controller.IM.Data   |        1956     44.23%     44.23% |        1176     26.59%     70.83% |         109      2.46%     73.29% |        1181     26.71%    100.00%
system.ruby.L1Cache_Controller.IM.Data::total         4422                      
system.ruby.L1Cache_Controller.IM.Data_all_Acks |       20930      3.02%      3.02% |      625438     90.20%     93.22% |       20319      2.93%     96.15% |       26667      3.85%    100.00%
system.ruby.L1Cache_Controller.IM.Data_all_Acks::total       693354                      
system.ruby.L1Cache_Controller.SM.Inv    |           0      0.00%      0.00% |           0      0.00%      0.00% |           0      0.00%      0.00% |           1    100.00%    100.00%
system.ruby.L1Cache_Controller.SM.Inv::total            1                      
system.ruby.L1Cache_Controller.SM.Ack    |       19131     50.58%     50.58% |        9006     23.81%     74.40% |        4347     11.49%     85.89% |        5337     14.11%    100.00%
system.ruby.L1Cache_Controller.SM.Ack::total        37821                      
system.ruby.L1Cache_Controller.SM.Ack_all |        8612     42.44%     42.44% |        4147     20.43%     62.87% |        3132     15.43%     78.30% |        4403     21.70%    100.00%
system.ruby.L1Cache_Controller.SM.Ack_all::total        20294                      
system.ruby.L1Cache_Controller.M_I.WB_Ack |       59180      0.63%      0.63% |     9228182     97.70%     98.33% |       71701      0.76%     99.09% |       86208      0.91%    100.00%
system.ruby.L1Cache_Controller.M_I.WB_Ack::total      9445271                      
system.ruby.L1Cache_Controller.S_IL0.L0_Invalidate_Own |       62580     18.39%     18.39% |      162343     47.71%     66.09% |       55484     16.30%     82.40% |       59898     17.60%    100.00%
system.ruby.L1Cache_Controller.S_IL0.L0_Invalidate_Own::total       340305                      
system.ruby.L1Cache_Controller.S_IL0.L0_Invalidate_Else |        7487     22.56%     22.56% |        1939      5.84%     28.41% |       13307     40.11%     68.51% |       10447     31.49%    100.00%
system.ruby.L1Cache_Controller.S_IL0.L0_Invalidate_Else::total        33180                      
system.ruby.L1Cache_Controller.S_IL0.L0_Ack |       70067     18.76%     18.76% |      164282     43.99%     62.75% |       68791     18.42%     81.17% |       70345     18.83%    100.00%
system.ruby.L1Cache_Controller.S_IL0.L0_Ack::total       373485                      
system.ruby.L1Cache_Controller.E_IL0.L0_DataAck |         169      7.25%      7.25% |        1662     71.27%     78.52% |         255     10.93%     89.45% |         246     10.55%    100.00%
system.ruby.L1Cache_Controller.E_IL0.L0_DataAck::total         2332                      
system.ruby.L1Cache_Controller.E_IL0.L0_Invalidate_Own |         456      0.15%      0.15% |      299618     99.07%     99.22% |        1584      0.52%     99.75% |         765      0.25%    100.00%
system.ruby.L1Cache_Controller.E_IL0.L0_Invalidate_Own::total       302423                      
system.ruby.L1Cache_Controller.E_IL0.L0_Invalidate_Else |         523     14.98%     14.98% |         127      3.64%     18.61% |        1952     55.90%     74.51% |         890     25.49%    100.00%
system.ruby.L1Cache_Controller.E_IL0.L0_Invalidate_Else::total         3492                      
system.ruby.L1Cache_Controller.E_IL0.L0_Ack |         810      0.27%      0.27% |      298083     98.19%     98.46% |        3281      1.08%     99.54% |        1409      0.46%    100.00%
system.ruby.L1Cache_Controller.E_IL0.L0_Ack::total       303583                      
system.ruby.L1Cache_Controller.M_IL0.L0_DataAck |        6805     19.01%     19.01% |       19940     55.72%     74.73% |        4525     12.64%     87.38% |        4518     12.62%    100.00%
system.ruby.L1Cache_Controller.M_IL0.L0_DataAck::total        35788                      
system.ruby.L1Cache_Controller.M_IL0.L0_Invalidate_Own |        3994      1.11%      1.11% |      350073     97.06%     98.17% |        3432      0.95%     99.12% |        3172      0.88%    100.00%
system.ruby.L1Cache_Controller.M_IL0.L0_Invalidate_Own::total       360671                      
system.ruby.L1Cache_Controller.M_IL0.L0_Invalidate_Else |        5692     40.51%     40.51% |        1113      7.92%     48.43% |        3636     25.88%     74.31% |        3610     25.69%    100.00%
system.ruby.L1Cache_Controller.M_IL0.L0_Invalidate_Else::total        14051                      
system.ruby.L1Cache_Controller.M_IL0.L0_Ack |        2881      0.85%      0.85% |      331246     97.73%     98.58% |        2543      0.75%     99.33% |        2264      0.67%    100.00%
system.ruby.L1Cache_Controller.M_IL0.L0_Ack::total       338934                      
system.ruby.L2Cache_Controller.L1_GETS        9160110      0.00%      0.00%
system.ruby.L2Cache_Controller.L1_GETX         697786      0.00%      0.00%
system.ruby.L2Cache_Controller.L1_UPGRADE        15873      0.00%      0.00%
system.ruby.L2Cache_Controller.L1_PUTX        9445271      0.00%      0.00%
system.ruby.L2Cache_Controller.L2_Replacement       816932      0.00%      0.00%
system.ruby.L2Cache_Controller.L2_Replacement_clean       666087      0.00%      0.00%
system.ruby.L2Cache_Controller.Mem_Data       1500077      0.00%      0.00%
system.ruby.L2Cache_Controller.Mem_Ack        1483024      0.00%      0.00%
system.ruby.L2Cache_Controller.WB_Data          22402      0.00%      0.00%
system.ruby.L2Cache_Controller.WB_Data_clean        21935      0.00%      0.00%
system.ruby.L2Cache_Controller.Ack              17786      0.00%      0.00%
system.ruby.L2Cache_Controller.Ack_all           9104      0.00%      0.00%
system.ruby.L2Cache_Controller.Unblock          29159      0.00%      0.00%
system.ruby.L2Cache_Controller.Exclusive_Unblock      9496150      0.00%      0.00%
system.ruby.L2Cache_Controller.MEM_Inv             10      0.00%      0.00%
system.ruby.L2Cache_Controller.NP.L1_GETS      1115466      0.00%      0.00%
system.ruby.L2Cache_Controller.NP.L1_GETX       384611      0.00%      0.00%
system.ruby.L2Cache_Controller.SS.L1_GETS       348210      0.00%      0.00%
system.ruby.L2Cache_Controller.SS.L1_GETX         4422      0.00%      0.00%
system.ruby.L2Cache_Controller.SS.L1_UPGRADE        15872      0.00%      0.00%
system.ruby.L2Cache_Controller.SS.L2_Replacement          432      0.00%      0.00%
system.ruby.L2Cache_Controller.SS.L2_Replacement_clean         7638      0.00%      0.00%
system.ruby.L2Cache_Controller.M.L1_GETS      7667049      0.00%      0.00%
system.ruby.L2Cache_Controller.M.L1_GETX       303162      0.00%      0.00%
system.ruby.L2Cache_Controller.M.L2_Replacement       815402      0.00%      0.00%
system.ruby.L2Cache_Controller.M.L2_Replacement_clean       643339      0.00%      0.00%
system.ruby.L2Cache_Controller.M.MEM_Inv            1      0.00%      0.00%
system.ruby.L2Cache_Controller.MT.L1_GETS        29159      0.00%      0.00%
system.ruby.L2Cache_Controller.MT.L1_GETX         5581      0.00%      0.00%
system.ruby.L2Cache_Controller.MT.L1_PUTX      9445271      0.00%      0.00%
system.ruby.L2Cache_Controller.MT.L2_Replacement         1098      0.00%      0.00%
system.ruby.L2Cache_Controller.MT.L2_Replacement_clean        15110      0.00%      0.00%
system.ruby.L2Cache_Controller.MT.MEM_Inv            4      0.00%      0.00%
system.ruby.L2Cache_Controller.M_I.L1_GETS            1      0.00%      0.00%
system.ruby.L2Cache_Controller.M_I.Mem_Ack      1483024      0.00%      0.00%
system.ruby.L2Cache_Controller.M_I.MEM_Inv            1      0.00%      0.00%
system.ruby.L2Cache_Controller.MT_I.WB_Data          885      0.00%      0.00%
system.ruby.L2Cache_Controller.MT_I.WB_Data_clean          182      0.00%      0.00%
system.ruby.L2Cache_Controller.MT_I.Ack_all           35      0.00%      0.00%
system.ruby.L2Cache_Controller.MT_I.MEM_Inv            4      0.00%      0.00%
system.ruby.L2Cache_Controller.MCT_I.WB_Data         8266      0.00%      0.00%
system.ruby.L2Cache_Controller.MCT_I.WB_Data_clean         5845      0.00%      0.00%
system.ruby.L2Cache_Controller.MCT_I.Ack_all          999      0.00%      0.00%
system.ruby.L2Cache_Controller.I_I.Ack          17138      0.00%      0.00%
system.ruby.L2Cache_Controller.I_I.Ack_all         7638      0.00%      0.00%
system.ruby.L2Cache_Controller.S_I.Ack            648      0.00%      0.00%
system.ruby.L2Cache_Controller.S_I.Ack_all          432      0.00%      0.00%
system.ruby.L2Cache_Controller.ISS.L1_GETS           13      0.00%      0.00%
system.ruby.L2Cache_Controller.ISS.Mem_Data      1115453      0.00%      0.00%
system.ruby.L2Cache_Controller.IS.Mem_Data           13      0.00%      0.00%
system.ruby.L2Cache_Controller.IM.Mem_Data       384611      0.00%      0.00%
system.ruby.L2Cache_Controller.SS_MB.L1_GETS           56      0.00%      0.00%
system.ruby.L2Cache_Controller.SS_MB.L1_GETX            2      0.00%      0.00%
system.ruby.L2Cache_Controller.SS_MB.L1_UPGRADE            1      0.00%      0.00%
system.ruby.L2Cache_Controller.SS_MB.Exclusive_Unblock        20294      0.00%      0.00%
system.ruby.L2Cache_Controller.MT_MB.L1_GETS          156      0.00%      0.00%
system.ruby.L2Cache_Controller.MT_MB.L1_GETX            7      0.00%      0.00%
system.ruby.L2Cache_Controller.MT_MB.Exclusive_Unblock      9475856      0.00%      0.00%
system.ruby.L2Cache_Controller.MT_IIB.L1_GETX            1      0.00%      0.00%
system.ruby.L2Cache_Controller.MT_IIB.WB_Data        13238      0.00%      0.00%
system.ruby.L2Cache_Controller.MT_IIB.WB_Data_clean        15891      0.00%      0.00%
system.ruby.L2Cache_Controller.MT_IIB.Unblock           30      0.00%      0.00%
system.ruby.L2Cache_Controller.MT_IB.WB_Data           13      0.00%      0.00%
system.ruby.L2Cache_Controller.MT_IB.WB_Data_clean           17      0.00%      0.00%
system.ruby.L2Cache_Controller.MT_SB.Unblock        29129      0.00%      0.00%

---------- End Simulation Statistics   ----------
