
---------- Begin Simulation Statistics ----------
sim_seconds                                  1.291109                       # Number of seconds simulated
sim_ticks                                1291108739500                       # Number of ticks simulated
final_tick                               53482346803501                       # Number of ticks from beginning of simulation (restored from checkpoints and never reset)
sim_freq                                 1000000000000                       # Frequency of simulated ticks
host_inst_rate                                 126265                       # Simulator instruction rate (inst/s)
host_op_rate                                   168979                       # Simulator op (including micro ops) rate (op/s)
host_tick_rate                              300924385                       # Simulator tick rate (ticks/s)
host_mem_usage                                1810264                       # Number of bytes of host memory used
host_seconds                                  4290.48                       # Real time elapsed on the host
sim_insts                                   541734850                       # Number of instructions simulated
sim_ops                                     725001591                       # Number of ops (including micro ops) simulated
system.voltage_domain.voltage                       1                       # Voltage in Volts
system.clk_domain.clock                          1000                       # Clock period in ticks
system.mem_ctrls.bytes_read::ruby.dir_cntrl0    170211520                       # Number of bytes read from this memory
system.mem_ctrls.bytes_read::total          170211520                       # Number of bytes read from this memory
system.mem_ctrls.bytes_written::ruby.dir_cntrl0    100780672                       # Number of bytes written to this memory
system.mem_ctrls.bytes_written::total       100780672                       # Number of bytes written to this memory
system.mem_ctrls.num_reads::ruby.dir_cntrl0      2659555                       # Number of read requests responded to by this memory
system.mem_ctrls.num_reads::total             2659555                       # Number of read requests responded to by this memory
system.mem_ctrls.num_writes::ruby.dir_cntrl0      1574698                       # Number of write requests responded to by this memory
system.mem_ctrls.num_writes::total            1574698                       # Number of write requests responded to by this memory
system.mem_ctrls.bw_read::ruby.dir_cntrl0    131833605                       # Total read bandwidth from this memory (bytes/s)
system.mem_ctrls.bw_read::total             131833605                       # Total read bandwidth from this memory (bytes/s)
system.mem_ctrls.bw_write::ruby.dir_cntrl0     78057462                       # Write bandwidth from this memory (bytes/s)
system.mem_ctrls.bw_write::total             78057462                       # Write bandwidth from this memory (bytes/s)
system.mem_ctrls.bw_total::ruby.dir_cntrl0    209891068                       # Total bandwidth to/from this memory (bytes/s)
system.mem_ctrls.bw_total::total            209891068                       # Total bandwidth to/from this memory (bytes/s)
system.mem_ctrls.readReqs                     2659555                       # Number of read requests accepted
system.mem_ctrls.writeReqs                    1574698                       # Number of write requests accepted
system.mem_ctrls.readBursts                   2659555                       # Number of DRAM read bursts, including those serviced by the write queue
system.mem_ctrls.writeBursts                  1574698                       # Number of DRAM write bursts, including those merged in the write queue
system.mem_ctrls.bytesReadDRAM              170166656                       # Total number of bytes read from DRAM
system.mem_ctrls.bytesReadWrQ                   44864                       # Total number of bytes read from write queue
system.mem_ctrls.bytesWritten               100781056                       # Total number of bytes written to DRAM
system.mem_ctrls.bytesReadSys               170211520                       # Total read bytes from the system interface side
system.mem_ctrls.bytesWrittenSys            100780672                       # Total written bytes from the system interface side
system.mem_ctrls.servicedByWrQ                    701                       # Number of DRAM read bursts serviced by the write queue
system.mem_ctrls.mergedWrBursts                     0                       # Number of DRAM write bursts merged with an existing one
system.mem_ctrls.neitherReadNorWriteReqs            0                       # Number of requests that are neither read nor write
system.mem_ctrls.perBankRdBursts::0            166341                       # Per bank write bursts
system.mem_ctrls.perBankRdBursts::1            168573                       # Per bank write bursts
system.mem_ctrls.perBankRdBursts::2            164529                       # Per bank write bursts
system.mem_ctrls.perBankRdBursts::3            164800                       # Per bank write bursts
system.mem_ctrls.perBankRdBursts::4            166451                       # Per bank write bursts
system.mem_ctrls.perBankRdBursts::5            166729                       # Per bank write bursts
system.mem_ctrls.perBankRdBursts::6            169644                       # Per bank write bursts
system.mem_ctrls.perBankRdBursts::7            165265                       # Per bank write bursts
system.mem_ctrls.perBankRdBursts::8            165989                       # Per bank write bursts
system.mem_ctrls.perBankRdBursts::9            165915                       # Per bank write bursts
system.mem_ctrls.perBankRdBursts::10           164092                       # Per bank write bursts
system.mem_ctrls.perBankRdBursts::11           164948                       # Per bank write bursts
system.mem_ctrls.perBankRdBursts::12           164970                       # Per bank write bursts
system.mem_ctrls.perBankRdBursts::13           165383                       # Per bank write bursts
system.mem_ctrls.perBankRdBursts::14           166646                       # Per bank write bursts
system.mem_ctrls.perBankRdBursts::15           168579                       # Per bank write bursts
system.mem_ctrls.perBankWrBursts::0             97553                       # Per bank write bursts
system.mem_ctrls.perBankWrBursts::1            101643                       # Per bank write bursts
system.mem_ctrls.perBankWrBursts::2             97613                       # Per bank write bursts
system.mem_ctrls.perBankWrBursts::3             97248                       # Per bank write bursts
system.mem_ctrls.perBankWrBursts::4             97827                       # Per bank write bursts
system.mem_ctrls.perBankWrBursts::5             99008                       # Per bank write bursts
system.mem_ctrls.perBankWrBursts::6            100522                       # Per bank write bursts
system.mem_ctrls.perBankWrBursts::7             98099                       # Per bank write bursts
system.mem_ctrls.perBankWrBursts::8             98823                       # Per bank write bursts
system.mem_ctrls.perBankWrBursts::9             98254                       # Per bank write bursts
system.mem_ctrls.perBankWrBursts::10            97114                       # Per bank write bursts
system.mem_ctrls.perBankWrBursts::11            97818                       # Per bank write bursts
system.mem_ctrls.perBankWrBursts::12            97794                       # Per bank write bursts
system.mem_ctrls.perBankWrBursts::13            97770                       # Per bank write bursts
system.mem_ctrls.perBankWrBursts::14            98360                       # Per bank write bursts
system.mem_ctrls.perBankWrBursts::15            99258                       # Per bank write bursts
system.mem_ctrls.numRdRetry                         0                       # Number of times read queue was full causing retry
system.mem_ctrls.numWrRetry                         0                       # Number of times write queue was full causing retry
system.mem_ctrls.totGap                  1291108662500                       # Total gap between requests
system.mem_ctrls.readPktSize::0                     0                       # Read request sizes (log2)
system.mem_ctrls.readPktSize::1                     0                       # Read request sizes (log2)
system.mem_ctrls.readPktSize::2                     0                       # Read request sizes (log2)
system.mem_ctrls.readPktSize::3                     0                       # Read request sizes (log2)
system.mem_ctrls.readPktSize::4                     0                       # Read request sizes (log2)
system.mem_ctrls.readPktSize::5                     0                       # Read request sizes (log2)
system.mem_ctrls.readPktSize::6               2659555                       # Read request sizes (log2)
system.mem_ctrls.writePktSize::0                    0                       # Write request sizes (log2)
system.mem_ctrls.writePktSize::1                    0                       # Write request sizes (log2)
system.mem_ctrls.writePktSize::2                    0                       # Write request sizes (log2)
system.mem_ctrls.writePktSize::3                    0                       # Write request sizes (log2)
system.mem_ctrls.writePktSize::4                    0                       # Write request sizes (log2)
system.mem_ctrls.writePktSize::5                    0                       # Write request sizes (log2)
system.mem_ctrls.writePktSize::6              1574698                       # Write request sizes (log2)
system.mem_ctrls.rdQLenPdf::0                 2652157                       # What read queue length does an incoming req see
system.mem_ctrls.rdQLenPdf::1                    6691                       # What read queue length does an incoming req see
system.mem_ctrls.rdQLenPdf::2                       6                       # What read queue length does an incoming req see
system.mem_ctrls.rdQLenPdf::3                       0                       # What read queue length does an incoming req see
system.mem_ctrls.rdQLenPdf::4                       0                       # What read queue length does an incoming req see
system.mem_ctrls.rdQLenPdf::5                       0                       # What read queue length does an incoming req see
system.mem_ctrls.rdQLenPdf::6                       0                       # What read queue length does an incoming req see
system.mem_ctrls.rdQLenPdf::7                       0                       # What read queue length does an incoming req see
system.mem_ctrls.rdQLenPdf::8                       0                       # What read queue length does an incoming req see
system.mem_ctrls.rdQLenPdf::9                       0                       # What read queue length does an incoming req see
system.mem_ctrls.rdQLenPdf::10                      0                       # What read queue length does an incoming req see
system.mem_ctrls.rdQLenPdf::11                      0                       # What read queue length does an incoming req see
system.mem_ctrls.rdQLenPdf::12                      0                       # What read queue length does an incoming req see
system.mem_ctrls.rdQLenPdf::13                      0                       # What read queue length does an incoming req see
system.mem_ctrls.rdQLenPdf::14                      0                       # What read queue length does an incoming req see
system.mem_ctrls.rdQLenPdf::15                      0                       # What read queue length does an incoming req see
system.mem_ctrls.rdQLenPdf::16                      0                       # What read queue length does an incoming req see
system.mem_ctrls.rdQLenPdf::17                      0                       # What read queue length does an incoming req see
system.mem_ctrls.rdQLenPdf::18                      0                       # What read queue length does an incoming req see
system.mem_ctrls.rdQLenPdf::19                      0                       # What read queue length does an incoming req see
system.mem_ctrls.rdQLenPdf::20                      0                       # What read queue length does an incoming req see
system.mem_ctrls.rdQLenPdf::21                      0                       # What read queue length does an incoming req see
system.mem_ctrls.rdQLenPdf::22                      0                       # What read queue length does an incoming req see
system.mem_ctrls.rdQLenPdf::23                      0                       # What read queue length does an incoming req see
system.mem_ctrls.rdQLenPdf::24                      0                       # What read queue length does an incoming req see
system.mem_ctrls.rdQLenPdf::25                      0                       # What read queue length does an incoming req see
system.mem_ctrls.rdQLenPdf::26                      0                       # What read queue length does an incoming req see
system.mem_ctrls.rdQLenPdf::27                      0                       # What read queue length does an incoming req see
system.mem_ctrls.rdQLenPdf::28                      0                       # What read queue length does an incoming req see
system.mem_ctrls.rdQLenPdf::29                      0                       # What read queue length does an incoming req see
system.mem_ctrls.rdQLenPdf::30                      0                       # What read queue length does an incoming req see
system.mem_ctrls.rdQLenPdf::31                      0                       # What read queue length does an incoming req see
system.mem_ctrls.wrQLenPdf::0                       0                       # What write queue length does an incoming req see
system.mem_ctrls.wrQLenPdf::1                       0                       # What write queue length does an incoming req see
system.mem_ctrls.wrQLenPdf::2                       0                       # What write queue length does an incoming req see
system.mem_ctrls.wrQLenPdf::3                       0                       # What write queue length does an incoming req see
system.mem_ctrls.wrQLenPdf::4                       0                       # What write queue length does an incoming req see
system.mem_ctrls.wrQLenPdf::5                       0                       # What write queue length does an incoming req see
system.mem_ctrls.wrQLenPdf::6                       0                       # What write queue length does an incoming req see
system.mem_ctrls.wrQLenPdf::7                       0                       # What write queue length does an incoming req see
system.mem_ctrls.wrQLenPdf::8                       0                       # What write queue length does an incoming req see
system.mem_ctrls.wrQLenPdf::9                       0                       # What write queue length does an incoming req see
system.mem_ctrls.wrQLenPdf::10                      0                       # What write queue length does an incoming req see
system.mem_ctrls.wrQLenPdf::11                      0                       # What write queue length does an incoming req see
system.mem_ctrls.wrQLenPdf::12                      0                       # What write queue length does an incoming req see
system.mem_ctrls.wrQLenPdf::13                      0                       # What write queue length does an incoming req see
system.mem_ctrls.wrQLenPdf::14                      0                       # What write queue length does an incoming req see
system.mem_ctrls.wrQLenPdf::15                   1146                       # What write queue length does an incoming req see
system.mem_ctrls.wrQLenPdf::16                   1278                       # What write queue length does an incoming req see
system.mem_ctrls.wrQLenPdf::17                  97335                       # What write queue length does an incoming req see
system.mem_ctrls.wrQLenPdf::18                  98317                       # What write queue length does an incoming req see
system.mem_ctrls.wrQLenPdf::19                  98328                       # What write queue length does an incoming req see
system.mem_ctrls.wrQLenPdf::20                  98355                       # What write queue length does an incoming req see
system.mem_ctrls.wrQLenPdf::21                  98339                       # What write queue length does an incoming req see
system.mem_ctrls.wrQLenPdf::22                  98343                       # What write queue length does an incoming req see
system.mem_ctrls.wrQLenPdf::23                  98358                       # What write queue length does an incoming req see
system.mem_ctrls.wrQLenPdf::24                  98344                       # What write queue length does an incoming req see
system.mem_ctrls.wrQLenPdf::25                  98352                       # What write queue length does an incoming req see
system.mem_ctrls.wrQLenPdf::26                  98349                       # What write queue length does an incoming req see
system.mem_ctrls.wrQLenPdf::27                  98340                       # What write queue length does an incoming req see
system.mem_ctrls.wrQLenPdf::28                  98329                       # What write queue length does an incoming req see
system.mem_ctrls.wrQLenPdf::29                  98320                       # What write queue length does an incoming req see
system.mem_ctrls.wrQLenPdf::30                  98295                       # What write queue length does an incoming req see
system.mem_ctrls.wrQLenPdf::31                  98288                       # What write queue length does an incoming req see
system.mem_ctrls.wrQLenPdf::32                  98274                       # What write queue length does an incoming req see
system.mem_ctrls.wrQLenPdf::33                      8                       # What write queue length does an incoming req see
system.mem_ctrls.wrQLenPdf::34                      0                       # What write queue length does an incoming req see
system.mem_ctrls.wrQLenPdf::35                      0                       # What write queue length does an incoming req see
system.mem_ctrls.wrQLenPdf::36                      0                       # What write queue length does an incoming req see
system.mem_ctrls.wrQLenPdf::37                      0                       # What write queue length does an incoming req see
system.mem_ctrls.wrQLenPdf::38                      0                       # What write queue length does an incoming req see
system.mem_ctrls.wrQLenPdf::39                      0                       # What write queue length does an incoming req see
system.mem_ctrls.wrQLenPdf::40                      0                       # What write queue length does an incoming req see
system.mem_ctrls.wrQLenPdf::41                      0                       # What write queue length does an incoming req see
system.mem_ctrls.wrQLenPdf::42                      0                       # What write queue length does an incoming req see
system.mem_ctrls.wrQLenPdf::43                      0                       # What write queue length does an incoming req see
system.mem_ctrls.wrQLenPdf::44                      0                       # What write queue length does an incoming req see
system.mem_ctrls.wrQLenPdf::45                      0                       # What write queue length does an incoming req see
system.mem_ctrls.wrQLenPdf::46                      0                       # What write queue length does an incoming req see
system.mem_ctrls.wrQLenPdf::47                      0                       # What write queue length does an incoming req see
system.mem_ctrls.wrQLenPdf::48                      0                       # What write queue length does an incoming req see
system.mem_ctrls.wrQLenPdf::49                      0                       # What write queue length does an incoming req see
system.mem_ctrls.wrQLenPdf::50                      0                       # What write queue length does an incoming req see
system.mem_ctrls.wrQLenPdf::51                      0                       # What write queue length does an incoming req see
system.mem_ctrls.wrQLenPdf::52                      0                       # What write queue length does an incoming req see
system.mem_ctrls.wrQLenPdf::53                      0                       # What write queue length does an incoming req see
system.mem_ctrls.wrQLenPdf::54                      0                       # What write queue length does an incoming req see
system.mem_ctrls.wrQLenPdf::55                      0                       # What write queue length does an incoming req see
system.mem_ctrls.wrQLenPdf::56                      0                       # What write queue length does an incoming req see
system.mem_ctrls.wrQLenPdf::57                      0                       # What write queue length does an incoming req see
system.mem_ctrls.wrQLenPdf::58                      0                       # What write queue length does an incoming req see
system.mem_ctrls.wrQLenPdf::59                      0                       # What write queue length does an incoming req see
system.mem_ctrls.wrQLenPdf::60                      0                       # What write queue length does an incoming req see
system.mem_ctrls.wrQLenPdf::61                      0                       # What write queue length does an incoming req see
system.mem_ctrls.wrQLenPdf::62                      0                       # What write queue length does an incoming req see
system.mem_ctrls.wrQLenPdf::63                      0                       # What write queue length does an incoming req see
system.mem_ctrls.bytesPerActivate::samples      1929717                       # Bytes accessed per row activation
system.mem_ctrls.bytesPerActivate::mean    140.408070                       # Bytes accessed per row activation
system.mem_ctrls.bytesPerActivate::gmean    91.852852                       # Bytes accessed per row activation
system.mem_ctrls.bytesPerActivate::stdev   200.086462                       # Bytes accessed per row activation
system.mem_ctrls.bytesPerActivate::0-127      1457148     75.51%     75.51% # Bytes accessed per row activation
system.mem_ctrls.bytesPerActivate::128-255       229387     11.89%     87.40% # Bytes accessed per row activation
system.mem_ctrls.bytesPerActivate::256-383        63587      3.30%     90.69% # Bytes accessed per row activation
system.mem_ctrls.bytesPerActivate::384-511        41128      2.13%     92.82% # Bytes accessed per row activation
system.mem_ctrls.bytesPerActivate::512-639        37431      1.94%     94.76% # Bytes accessed per row activation
system.mem_ctrls.bytesPerActivate::640-767        23334      1.21%     95.97% # Bytes accessed per row activation
system.mem_ctrls.bytesPerActivate::768-895        18967      0.98%     96.96% # Bytes accessed per row activation
system.mem_ctrls.bytesPerActivate::896-1023        15828      0.82%     97.78% # Bytes accessed per row activation
system.mem_ctrls.bytesPerActivate::1024-1151        42907      2.22%    100.00% # Bytes accessed per row activation
system.mem_ctrls.bytesPerActivate::total      1929717                       # Bytes accessed per row activation
system.mem_ctrls.rdPerTurnAround::samples        98264                       # Reads before turning the bus around for writes
system.mem_ctrls.rdPerTurnAround::mean      27.059289                       # Reads before turning the bus around for writes
system.mem_ctrls.rdPerTurnAround::gmean     24.639139                       # Reads before turning the bus around for writes
system.mem_ctrls.rdPerTurnAround::stdev     16.506870                       # Reads before turning the bus around for writes
system.mem_ctrls.rdPerTurnAround::0-31          70350     71.59%     71.59% # Reads before turning the bus around for writes
system.mem_ctrls.rdPerTurnAround::32-63         25663     26.12%     97.71% # Reads before turning the bus around for writes
system.mem_ctrls.rdPerTurnAround::64-95          1065      1.08%     98.79% # Reads before turning the bus around for writes
system.mem_ctrls.rdPerTurnAround::96-127          648      0.66%     99.45% # Reads before turning the bus around for writes
system.mem_ctrls.rdPerTurnAround::128-159          394      0.40%     99.85% # Reads before turning the bus around for writes
system.mem_ctrls.rdPerTurnAround::160-191           51      0.05%     99.91% # Reads before turning the bus around for writes
system.mem_ctrls.rdPerTurnAround::192-223           32      0.03%     99.94% # Reads before turning the bus around for writes
system.mem_ctrls.rdPerTurnAround::224-255           16      0.02%     99.95% # Reads before turning the bus around for writes
system.mem_ctrls.rdPerTurnAround::256-287           28      0.03%     99.98% # Reads before turning the bus around for writes
system.mem_ctrls.rdPerTurnAround::288-319            2      0.00%     99.98% # Reads before turning the bus around for writes
system.mem_ctrls.rdPerTurnAround::320-351            3      0.00%     99.99% # Reads before turning the bus around for writes
system.mem_ctrls.rdPerTurnAround::352-383            2      0.00%     99.99% # Reads before turning the bus around for writes
system.mem_ctrls.rdPerTurnAround::384-415            2      0.00%     99.99% # Reads before turning the bus around for writes
system.mem_ctrls.rdPerTurnAround::448-479            7      0.01%    100.00% # Reads before turning the bus around for writes
system.mem_ctrls.rdPerTurnAround::608-639            1      0.00%    100.00% # Reads before turning the bus around for writes
system.mem_ctrls.rdPerTurnAround::total         98264                       # Reads before turning the bus around for writes
system.mem_ctrls.wrPerTurnAround::samples        98264                       # Writes before turning the bus around for reads
system.mem_ctrls.wrPerTurnAround::mean      16.025238                       # Writes before turning the bus around for reads
system.mem_ctrls.wrPerTurnAround::gmean     16.023811                       # Writes before turning the bus around for reads
system.mem_ctrls.wrPerTurnAround::stdev      0.222335                       # Writes before turning the bus around for reads
system.mem_ctrls.wrPerTurnAround::16            96989     98.70%     98.70% # Writes before turning the bus around for reads
system.mem_ctrls.wrPerTurnAround::17               85      0.09%     98.79% # Writes before turning the bus around for reads
system.mem_ctrls.wrPerTurnAround::18             1175      1.20%     99.98% # Writes before turning the bus around for reads
system.mem_ctrls.wrPerTurnAround::19               15      0.02%    100.00% # Writes before turning the bus around for reads
system.mem_ctrls.wrPerTurnAround::total         98264                       # Writes before turning the bus around for reads
system.mem_ctrls.totQLat                  58607502621                       # Total ticks spent queuing
system.mem_ctrls.totMemAccLat            108461015121                       # Total ticks spent from burst creation until serviced by the DRAM
system.mem_ctrls.totBusLat                13294270000                       # Total ticks spent in databus transfers
system.mem_ctrls.avgQLat                     22042.39                       # Average queueing delay per DRAM burst
system.mem_ctrls.avgBusLat                    5000.00                       # Average bus latency per DRAM burst
system.mem_ctrls.avgMemAccLat                40792.39                       # Average memory access latency per DRAM burst
system.mem_ctrls.avgRdBW                       131.80                       # Average DRAM read bandwidth in MiByte/s
system.mem_ctrls.avgWrBW                        78.06                       # Average achieved write bandwidth in MiByte/s
system.mem_ctrls.avgRdBWSys                    131.83                       # Average system read bandwidth in MiByte/s
system.mem_ctrls.avgWrBWSys                     78.06                       # Average system write bandwidth in MiByte/s
system.mem_ctrls.peakBW                      12800.00                       # Theoretical peak bandwidth in MiByte/s
system.mem_ctrls.busUtil                         1.64                       # Data bus utilization in percentage
system.mem_ctrls.busUtilRead                     1.03                       # Data bus utilization in percentage for reads
system.mem_ctrls.busUtilWrite                    0.61                       # Data bus utilization in percentage for writes
system.mem_ctrls.avgRdQLen                       1.00                       # Average read queue length when enqueuing
system.mem_ctrls.avgWrQLen                      25.42                       # Average write queue length when enqueuing
system.mem_ctrls.readRowHits                  1484119                       # Number of row buffer hits during reads
system.mem_ctrls.writeRowHits                  819722                       # Number of row buffer hits during writes
system.mem_ctrls.readRowHitRate                 55.82                       # Row buffer hit rate for reads
system.mem_ctrls.writeRowHitRate                52.06                       # Row buffer hit rate for writes
system.mem_ctrls.avgGap                     304920.06                       # Average gap between requests
system.mem_ctrls.pageHitRate                    54.42                       # Row buffer hit rate, read and write combined
system.mem_ctrls_0.actEnergy               7355411280                       # Energy for activate commands per rank (pJ)
system.mem_ctrls_0.preEnergy               4013369250                       # Energy for precharge commands per rank (pJ)
system.mem_ctrls_0.readEnergy             10490438400                       # Energy for read commands per rank (pJ)
system.mem_ctrls_0.writeEnergy             5118636240                       # Energy for write commands per rank (pJ)
system.mem_ctrls_0.refreshEnergy          84804922800                       # Energy for refresh commands per rank (pJ)
system.mem_ctrls_0.actBackEnergy         287787712680                       # Energy for active background per rank (pJ)
system.mem_ctrls_0.preBackEnergy         526592465250                       # Energy for precharge background per rank (pJ)
system.mem_ctrls_0.totalEnergy           926162955900                       # Total energy per rank (pJ)
system.mem_ctrls_0.averagePower            713.312954                       # Core power per rank (mW)
system.mem_ctrls_0.memoryStateTime::IDLE 867857496502                       # Time in different power states
system.mem_ctrls_0.memoryStateTime::REF   43112940000                       # Time in different power states
system.mem_ctrls_0.memoryStateTime::PRE_PDN            0                       # Time in different power states
system.mem_ctrls_0.memoryStateTime::ACT  380138402998                       # Time in different power states
system.mem_ctrls_0.memoryStateTime::ACT_PDN            0                       # Time in different power states
system.mem_ctrls_1.actEnergy               7275766680                       # Energy for activate commands per rank (pJ)
system.mem_ctrls_1.preEnergy               3969912375                       # Energy for precharge commands per rank (pJ)
system.mem_ctrls_1.readEnergy             10446969000                       # Energy for read commands per rank (pJ)
system.mem_ctrls_1.writeEnergy             5090584320                       # Energy for write commands per rank (pJ)
system.mem_ctrls_1.refreshEnergy          84804922800                       # Energy for refresh commands per rank (pJ)
system.mem_ctrls_1.actBackEnergy         288392287455                       # Energy for active background per rank (pJ)
system.mem_ctrls_1.preBackEnergy         526062136500                       # Energy for precharge background per rank (pJ)
system.mem_ctrls_1.totalEnergy           926042579130                       # Total energy per rank (pJ)
system.mem_ctrls_1.averagePower            713.220242                       # Core power per rank (mW)
system.mem_ctrls_1.memoryStateTime::IDLE 867479211750                       # Time in different power states
system.mem_ctrls_1.memoryStateTime::REF   43112940000                       # Time in different power states
system.mem_ctrls_1.memoryStateTime::PRE_PDN            0                       # Time in different power states
system.mem_ctrls_1.memoryStateTime::ACT  380516037000                       # Time in different power states
system.mem_ctrls_1.memoryStateTime::ACT_PDN            0                       # Time in different power states
system.cpu_voltage_domain.voltage                   1                       # Voltage in Volts
system.cpu_clk_domain.clock                       500                       # Clock period in ticks
system.cpu0.apic_clk_domain.clock                8000                       # Clock period in ticks
system.cpu0.numCycles                      2583425578                       # number of cpu cycles simulated
system.cpu0.numWorkItemsStarted                     0                       # number of work items this cpu started
system.cpu0.numWorkItemsCompleted                   0                       # number of work items this cpu completed
system.cpu0.kern.inst.arm                           0                       # number of arm instructions executed
system.cpu0.kern.inst.quiesce                       0                       # number of quiesce instructions executed
system.cpu0.committedInsts                    1157603                       # Number of instructions committed
system.cpu0.committedOps                      2509743                       # Number of ops (including micro ops) committed
system.cpu0.num_int_alu_accesses              2455141                       # Number of integer alu accesses
system.cpu0.num_fp_alu_accesses                    39                       # Number of float alu accesses
system.cpu0.num_func_calls                      75380                       # number of times a function call or return occured
system.cpu0.num_conditional_control_insts       163578                       # number of instructions that are conditional controls
system.cpu0.num_int_insts                     2455141                       # number of integer instructions
system.cpu0.num_fp_insts                           39                       # number of float instructions
system.cpu0.num_int_register_reads            5003031                       # number of times the integer registers were read
system.cpu0.num_int_register_writes           2029812                       # number of times the integer registers were written
system.cpu0.num_fp_register_reads                  63                       # number of times the floating registers were read
system.cpu0.num_fp_register_writes                 31                       # number of times the floating registers were written
system.cpu0.num_cc_register_reads             1351364                       # number of times the CC registers were read
system.cpu0.num_cc_register_writes             741986                       # number of times the CC registers were written
system.cpu0.num_mem_refs                       595214                       # number of memory refs
system.cpu0.num_load_insts                     367290                       # Number of load instructions
system.cpu0.num_store_insts                    227924                       # Number of store instructions
system.cpu0.num_idle_cycles              2575718468.889677                       # Number of idle cycles
system.cpu0.num_busy_cycles              7707109.110323                       # Number of busy cycles
system.cpu0.not_idle_fraction                0.002983                       # Percentage of non-idle cycles
system.cpu0.idle_fraction                    0.997017                       # Percentage of idle cycles
system.cpu0.Branches                           262058                       # Number of branches fetched
system.cpu0.op_class::No_OpClass                41301      1.65%      1.65% # Class of executed instruction
system.cpu0.op_class::IntAlu                  1855089     73.91%     75.56% # Class of executed instruction
system.cpu0.op_class::IntMult                    4335      0.17%     75.73% # Class of executed instruction
system.cpu0.op_class::IntDiv                    13796      0.55%     76.28% # Class of executed instruction
system.cpu0.op_class::FloatAdd                     30      0.00%     76.28% # Class of executed instruction
system.cpu0.op_class::FloatCmp                      0      0.00%     76.28% # Class of executed instruction
system.cpu0.op_class::FloatCvt                      0      0.00%     76.28% # Class of executed instruction
system.cpu0.op_class::FloatMult                     0      0.00%     76.28% # Class of executed instruction
system.cpu0.op_class::FloatDiv                      0      0.00%     76.28% # Class of executed instruction
system.cpu0.op_class::FloatSqrt                     0      0.00%     76.28% # Class of executed instruction
system.cpu0.op_class::SimdAdd                       0      0.00%     76.28% # Class of executed instruction
system.cpu0.op_class::SimdAddAcc                    0      0.00%     76.28% # Class of executed instruction
system.cpu0.op_class::SimdAlu                       0      0.00%     76.28% # Class of executed instruction
system.cpu0.op_class::SimdCmp                       0      0.00%     76.28% # Class of executed instruction
system.cpu0.op_class::SimdCvt                       0      0.00%     76.28% # Class of executed instruction
system.cpu0.op_class::SimdMisc                      0      0.00%     76.28% # Class of executed instruction
system.cpu0.op_class::SimdMult                      0      0.00%     76.28% # Class of executed instruction
system.cpu0.op_class::SimdMultAcc                   0      0.00%     76.28% # Class of executed instruction
system.cpu0.op_class::SimdShift                     0      0.00%     76.28% # Class of executed instruction
system.cpu0.op_class::SimdShiftAcc                  0      0.00%     76.28% # Class of executed instruction
system.cpu0.op_class::SimdSqrt                      0      0.00%     76.28% # Class of executed instruction
system.cpu0.op_class::SimdFloatAdd                  0      0.00%     76.28% # Class of executed instruction
system.cpu0.op_class::SimdFloatAlu                  0      0.00%     76.28% # Class of executed instruction
system.cpu0.op_class::SimdFloatCmp                  0      0.00%     76.28% # Class of executed instruction
system.cpu0.op_class::SimdFloatCvt                  0      0.00%     76.28% # Class of executed instruction
system.cpu0.op_class::SimdFloatDiv                  0      0.00%     76.28% # Class of executed instruction
system.cpu0.op_class::SimdFloatMisc                 0      0.00%     76.28% # Class of executed instruction
system.cpu0.op_class::SimdFloatMult                 0      0.00%     76.28% # Class of executed instruction
system.cpu0.op_class::SimdFloatMultAcc              0      0.00%     76.28% # Class of executed instruction
system.cpu0.op_class::SimdFloatSqrt                 0      0.00%     76.28% # Class of executed instruction
system.cpu0.op_class::MemRead                  367290     14.63%     90.92% # Class of executed instruction
system.cpu0.op_class::MemWrite                 227924      9.08%    100.00% # Class of executed instruction
system.cpu0.op_class::IprAccess                     0      0.00%    100.00% # Class of executed instruction
system.cpu0.op_class::InstPrefetch                  0      0.00%    100.00% # Class of executed instruction
system.cpu0.op_class::total                   2509765                       # Class of executed instruction
system.cpu1.apic_clk_domain.clock                8000                       # Clock period in ticks
system.cpu1.numCycles                      2584532502                       # number of cpu cycles simulated
system.cpu1.numWorkItemsStarted                     0                       # number of work items this cpu started
system.cpu1.numWorkItemsCompleted                   0                       # number of work items this cpu completed
system.cpu1.kern.inst.arm                           0                       # number of arm instructions executed
system.cpu1.kern.inst.quiesce                       0                       # number of quiesce instructions executed
system.cpu1.committedInsts                  533911985                       # Number of instructions committed
system.cpu1.committedOps                    709295291                       # Number of ops (including micro ops) committed
system.cpu1.num_int_alu_accesses            508916590                       # Number of integer alu accesses
system.cpu1.num_fp_alu_accesses             331101068                       # Number of float alu accesses
system.cpu1.num_func_calls                     436569                       # number of times a function call or return occured
system.cpu1.num_conditional_control_insts     31473554                       # number of instructions that are conditional controls
system.cpu1.num_int_insts                   508916590                       # number of integer instructions
system.cpu1.num_fp_insts                    331101068                       # number of float instructions
system.cpu1.num_int_register_reads         1070351859                       # number of times the integer registers were read
system.cpu1.num_int_register_writes         339933742                       # number of times the integer registers were written
system.cpu1.num_fp_register_reads           564014582                       # number of times the floating registers were read
system.cpu1.num_fp_register_writes          276695748                       # number of times the floating registers were written
system.cpu1.num_cc_register_reads           220334416                       # number of times the CC registers were read
system.cpu1.num_cc_register_writes          241389552                       # number of times the CC registers were written
system.cpu1.num_mem_refs                    152871784                       # number of memory refs
system.cpu1.num_load_insts                   94782131                       # Number of load instructions
system.cpu1.num_store_insts                  58089653                       # Number of store instructions
system.cpu1.num_idle_cycles              10374015.233183                       # Number of idle cycles
system.cpu1.num_busy_cycles              2574158486.766817                       # Number of busy cycles
system.cpu1.not_idle_fraction                0.995986                       # Percentage of non-idle cycles
system.cpu1.idle_fraction                    0.004014                       # Percentage of idle cycles
system.cpu1.Branches                         33890228                       # Number of branches fetched
system.cpu1.op_class::No_OpClass               955709      0.13%      0.13% # Class of executed instruction
system.cpu1.op_class::IntAlu                444155415     62.62%     62.75% # Class of executed instruction
system.cpu1.op_class::IntMult                   25776      0.00%     62.76% # Class of executed instruction
system.cpu1.op_class::IntDiv                   145178      0.02%     62.78% # Class of executed instruction
system.cpu1.op_class::FloatAdd              111149730     15.67%     78.45% # Class of executed instruction
system.cpu1.op_class::FloatCmp                      0      0.00%     78.45% # Class of executed instruction
system.cpu1.op_class::FloatCvt                      0      0.00%     78.45% # Class of executed instruction
system.cpu1.op_class::FloatMult                     0      0.00%     78.45% # Class of executed instruction
system.cpu1.op_class::FloatDiv                      0      0.00%     78.45% # Class of executed instruction
system.cpu1.op_class::FloatSqrt                     0      0.00%     78.45% # Class of executed instruction
system.cpu1.op_class::SimdAdd                       0      0.00%     78.45% # Class of executed instruction
system.cpu1.op_class::SimdAddAcc                    0      0.00%     78.45% # Class of executed instruction
system.cpu1.op_class::SimdAlu                       0      0.00%     78.45% # Class of executed instruction
system.cpu1.op_class::SimdCmp                       0      0.00%     78.45% # Class of executed instruction
system.cpu1.op_class::SimdCvt                       0      0.00%     78.45% # Class of executed instruction
system.cpu1.op_class::SimdMisc                      0      0.00%     78.45% # Class of executed instruction
system.cpu1.op_class::SimdMult                      0      0.00%     78.45% # Class of executed instruction
system.cpu1.op_class::SimdMultAcc                   0      0.00%     78.45% # Class of executed instruction
system.cpu1.op_class::SimdShift                     0      0.00%     78.45% # Class of executed instruction
system.cpu1.op_class::SimdShiftAcc                  0      0.00%     78.45% # Class of executed instruction
system.cpu1.op_class::SimdSqrt                      0      0.00%     78.45% # Class of executed instruction
system.cpu1.op_class::SimdFloatAdd                  0      0.00%     78.45% # Class of executed instruction
system.cpu1.op_class::SimdFloatAlu                  0      0.00%     78.45% # Class of executed instruction
system.cpu1.op_class::SimdFloatCmp                  0      0.00%     78.45% # Class of executed instruction
system.cpu1.op_class::SimdFloatCvt                  0      0.00%     78.45% # Class of executed instruction
system.cpu1.op_class::SimdFloatDiv                  0      0.00%     78.45% # Class of executed instruction
system.cpu1.op_class::SimdFloatMisc                 0      0.00%     78.45% # Class of executed instruction
system.cpu1.op_class::SimdFloatMult                 0      0.00%     78.45% # Class of executed instruction
system.cpu1.op_class::SimdFloatMultAcc              0      0.00%     78.45% # Class of executed instruction
system.cpu1.op_class::SimdFloatSqrt                 0      0.00%     78.45% # Class of executed instruction
system.cpu1.op_class::MemRead                94782131     13.36%     91.81% # Class of executed instruction
system.cpu1.op_class::MemWrite               58089653      8.19%    100.00% # Class of executed instruction
system.cpu1.op_class::IprAccess                     0      0.00%    100.00% # Class of executed instruction
system.cpu1.op_class::InstPrefetch                  0      0.00%    100.00% # Class of executed instruction
system.cpu1.op_class::total                 709303592                       # Class of executed instruction
system.cpu2.apic_clk_domain.clock                8000                       # Clock period in ticks
system.cpu2.numCycles                      2582842649                       # number of cpu cycles simulated
system.cpu2.numWorkItemsStarted                     0                       # number of work items this cpu started
system.cpu2.numWorkItemsCompleted                   0                       # number of work items this cpu completed
system.cpu2.kern.inst.arm                           0                       # number of arm instructions executed
system.cpu2.kern.inst.quiesce                       0                       # number of quiesce instructions executed
system.cpu2.committedInsts                     873598                       # Number of instructions committed
system.cpu2.committedOps                      1884578                       # Number of ops (including micro ops) committed
system.cpu2.num_int_alu_accesses              1841256                       # Number of integer alu accesses
system.cpu2.num_fp_alu_accesses                     0                       # Number of float alu accesses
system.cpu2.num_func_calls                      52196                       # number of times a function call or return occured
system.cpu2.num_conditional_control_insts       132526                       # number of instructions that are conditional controls
system.cpu2.num_int_insts                     1841256                       # number of integer instructions
system.cpu2.num_fp_insts                            0                       # number of float instructions
system.cpu2.num_int_register_reads            3734539                       # number of times the integer registers were read
system.cpu2.num_int_register_writes           1525065                       # number of times the integer registers were written
system.cpu2.num_fp_register_reads                   0                       # number of times the floating registers were read
system.cpu2.num_fp_register_writes                  0                       # number of times the floating registers were written
system.cpu2.num_cc_register_reads             1044805                       # number of times the CC registers were read
system.cpu2.num_cc_register_writes             553538                       # number of times the CC registers were written
system.cpu2.num_mem_refs                       448476                       # number of memory refs
system.cpu2.num_load_insts                     281302                       # Number of load instructions
system.cpu2.num_store_insts                    167174                       # Number of store instructions
system.cpu2.num_idle_cycles              2577135366.567899                       # Number of idle cycles
system.cpu2.num_busy_cycles              5707282.432101                       # Number of busy cycles
system.cpu2.not_idle_fraction                0.002210                       # Percentage of non-idle cycles
system.cpu2.idle_fraction                    0.997790                       # Percentage of idle cycles
system.cpu2.Branches                           201560                       # Number of branches fetched
system.cpu2.op_class::No_OpClass                32540      1.73%      1.73% # Class of executed instruction
system.cpu2.op_class::IntAlu                  1388535     73.68%     75.41% # Class of executed instruction
system.cpu2.op_class::IntMult                    3830      0.20%     75.61% # Class of executed instruction
system.cpu2.op_class::IntDiv                    11200      0.59%     76.20% # Class of executed instruction
system.cpu2.op_class::FloatAdd                      0      0.00%     76.20% # Class of executed instruction
system.cpu2.op_class::FloatCmp                      0      0.00%     76.20% # Class of executed instruction
system.cpu2.op_class::FloatCvt                      0      0.00%     76.20% # Class of executed instruction
system.cpu2.op_class::FloatMult                     0      0.00%     76.20% # Class of executed instruction
system.cpu2.op_class::FloatDiv                      0      0.00%     76.20% # Class of executed instruction
system.cpu2.op_class::FloatSqrt                     0      0.00%     76.20% # Class of executed instruction
system.cpu2.op_class::SimdAdd                       0      0.00%     76.20% # Class of executed instruction
system.cpu2.op_class::SimdAddAcc                    0      0.00%     76.20% # Class of executed instruction
system.cpu2.op_class::SimdAlu                       0      0.00%     76.20% # Class of executed instruction
system.cpu2.op_class::SimdCmp                       0      0.00%     76.20% # Class of executed instruction
system.cpu2.op_class::SimdCvt                       0      0.00%     76.20% # Class of executed instruction
system.cpu2.op_class::SimdMisc                      0      0.00%     76.20% # Class of executed instruction
system.cpu2.op_class::SimdMult                      0      0.00%     76.20% # Class of executed instruction
system.cpu2.op_class::SimdMultAcc                   0      0.00%     76.20% # Class of executed instruction
system.cpu2.op_class::SimdShift                     0      0.00%     76.20% # Class of executed instruction
system.cpu2.op_class::SimdShiftAcc                  0      0.00%     76.20% # Class of executed instruction
system.cpu2.op_class::SimdSqrt                      0      0.00%     76.20% # Class of executed instruction
system.cpu2.op_class::SimdFloatAdd                  0      0.00%     76.20% # Class of executed instruction
system.cpu2.op_class::SimdFloatAlu                  0      0.00%     76.20% # Class of executed instruction
system.cpu2.op_class::SimdFloatCmp                  0      0.00%     76.20% # Class of executed instruction
system.cpu2.op_class::SimdFloatCvt                  0      0.00%     76.20% # Class of executed instruction
system.cpu2.op_class::SimdFloatDiv                  0      0.00%     76.20% # Class of executed instruction
system.cpu2.op_class::SimdFloatMisc                 0      0.00%     76.20% # Class of executed instruction
system.cpu2.op_class::SimdFloatMult                 0      0.00%     76.20% # Class of executed instruction
system.cpu2.op_class::SimdFloatMultAcc              0      0.00%     76.20% # Class of executed instruction
system.cpu2.op_class::SimdFloatSqrt                 0      0.00%     76.20% # Class of executed instruction
system.cpu2.op_class::MemRead                  281302     14.93%     91.13% # Class of executed instruction
system.cpu2.op_class::MemWrite                 167174      8.87%    100.00% # Class of executed instruction
system.cpu2.op_class::IprAccess                     0      0.00%    100.00% # Class of executed instruction
system.cpu2.op_class::InstPrefetch                  0      0.00%    100.00% # Class of executed instruction
system.cpu2.op_class::total                   1884581                       # Class of executed instruction
system.cpu3.apic_clk_domain.clock                8000                       # Clock period in ticks
system.cpu3.numCycles                      2579886270                       # number of cpu cycles simulated
system.cpu3.numWorkItemsStarted                     0                       # number of work items this cpu started
system.cpu3.numWorkItemsCompleted                   0                       # number of work items this cpu completed
system.cpu3.kern.inst.arm                           0                       # number of arm instructions executed
system.cpu3.kern.inst.quiesce                       0                       # number of quiesce instructions executed
system.cpu3.committedInsts                    2967230                       # Number of instructions committed
system.cpu3.committedOps                      5899612                       # Number of ops (including micro ops) committed
system.cpu3.num_int_alu_accesses              5796237                       # Number of integer alu accesses
system.cpu3.num_fp_alu_accesses                  1826                       # Number of float alu accesses
system.cpu3.num_func_calls                     151004                       # number of times a function call or return occured
system.cpu3.num_conditional_control_insts       498838                       # number of instructions that are conditional controls
system.cpu3.num_int_insts                     5796237                       # number of integer instructions
system.cpu3.num_fp_insts                         1826                       # number of float instructions
system.cpu3.num_int_register_reads           11548568                       # number of times the integer registers were read
system.cpu3.num_int_register_writes           4711029                       # number of times the integer registers were written
system.cpu3.num_fp_register_reads                3068                       # number of times the floating registers were read
system.cpu3.num_fp_register_writes               1448                       # number of times the floating registers were written
system.cpu3.num_cc_register_reads             3716191                       # number of times the CC registers were read
system.cpu3.num_cc_register_writes            2015366                       # number of times the CC registers were written
system.cpu3.num_mem_refs                      1334317                       # number of memory refs
system.cpu3.num_load_insts                     863060                       # Number of load instructions
system.cpu3.num_store_insts                    471257                       # Number of store instructions
system.cpu3.num_idle_cycles              2564448036.132355                       # Number of idle cycles
system.cpu3.num_busy_cycles              15438233.867645                       # Number of busy cycles
system.cpu3.not_idle_fraction                0.005984                       # Percentage of non-idle cycles
system.cpu3.idle_fraction                    0.994016                       # Percentage of idle cycles
system.cpu3.Branches                           677725                       # Number of branches fetched
system.cpu3.op_class::No_OpClass                40457      0.69%      0.69% # Class of executed instruction
system.cpu3.op_class::IntAlu                  4505398     76.37%     77.05% # Class of executed instruction
system.cpu3.op_class::IntMult                    4885      0.08%     77.14% # Class of executed instruction
system.cpu3.op_class::IntDiv                    13270      0.22%     77.36% # Class of executed instruction
system.cpu3.op_class::FloatAdd                   1376      0.02%     77.38% # Class of executed instruction
system.cpu3.op_class::FloatCmp                      0      0.00%     77.38% # Class of executed instruction
system.cpu3.op_class::FloatCvt                      0      0.00%     77.38% # Class of executed instruction
system.cpu3.op_class::FloatMult                     0      0.00%     77.38% # Class of executed instruction
system.cpu3.op_class::FloatDiv                      0      0.00%     77.38% # Class of executed instruction
system.cpu3.op_class::FloatSqrt                     0      0.00%     77.38% # Class of executed instruction
system.cpu3.op_class::SimdAdd                       0      0.00%     77.38% # Class of executed instruction
system.cpu3.op_class::SimdAddAcc                    0      0.00%     77.38% # Class of executed instruction
system.cpu3.op_class::SimdAlu                       0      0.00%     77.38% # Class of executed instruction
system.cpu3.op_class::SimdCmp                       0      0.00%     77.38% # Class of executed instruction
system.cpu3.op_class::SimdCvt                       0      0.00%     77.38% # Class of executed instruction
system.cpu3.op_class::SimdMisc                      0      0.00%     77.38% # Class of executed instruction
system.cpu3.op_class::SimdMult                      0      0.00%     77.38% # Class of executed instruction
system.cpu3.op_class::SimdMultAcc                   0      0.00%     77.38% # Class of executed instruction
system.cpu3.op_class::SimdShift                     0      0.00%     77.38% # Class of executed instruction
system.cpu3.op_class::SimdShiftAcc                  0      0.00%     77.38% # Class of executed instruction
system.cpu3.op_class::SimdSqrt                      0      0.00%     77.38% # Class of executed instruction
system.cpu3.op_class::SimdFloatAdd                  0      0.00%     77.38% # Class of executed instruction
system.cpu3.op_class::SimdFloatAlu                  0      0.00%     77.38% # Class of executed instruction
system.cpu3.op_class::SimdFloatCmp                  0      0.00%     77.38% # Class of executed instruction
system.cpu3.op_class::SimdFloatCvt                  0      0.00%     77.38% # Class of executed instruction
system.cpu3.op_class::SimdFloatDiv                  0      0.00%     77.38% # Class of executed instruction
system.cpu3.op_class::SimdFloatMisc                 0      0.00%     77.38% # Class of executed instruction
system.cpu3.op_class::SimdFloatMult                 0      0.00%     77.38% # Class of executed instruction
system.cpu3.op_class::SimdFloatMultAcc              0      0.00%     77.38% # Class of executed instruction
system.cpu3.op_class::SimdFloatSqrt                 0      0.00%     77.38% # Class of executed instruction
system.cpu3.op_class::MemRead                  863060     14.63%     92.01% # Class of executed instruction
system.cpu3.op_class::MemWrite                 471257      7.99%    100.00% # Class of executed instruction
system.cpu3.op_class::IprAccess                     0      0.00%    100.00% # Class of executed instruction
system.cpu3.op_class::InstPrefetch                  0      0.00%    100.00% # Class of executed instruction
system.cpu3.op_class::total                   5899703                       # Class of executed instruction
system.iobus.trans_dist::ReadReq                  706                       # Transaction distribution
system.iobus.trans_dist::ReadResp                 706                       # Transaction distribution
system.iobus.trans_dist::WriteReq                1554                       # Transaction distribution
system.iobus.trans_dist::WriteResp               1554                       # Transaction distribution
system.iobus.trans_dist::MessageReq                10                       # Transaction distribution
system.iobus.trans_dist::MessageResp               10                       # Transaction distribution
system.iobus.pkt_count_system.pc.south_bridge.io_apic.int_master::system.ruby.l0_cntrl0.sequencer.pio-slave-port            2                       # Packet count per connected master and slave (bytes)
system.iobus.pkt_count_system.pc.south_bridge.io_apic.int_master::system.ruby.l0_cntrl1.sequencer.pio-slave-port            2                       # Packet count per connected master and slave (bytes)
system.iobus.pkt_count_system.pc.south_bridge.io_apic.int_master::total            4                       # Packet count per connected master and slave (bytes)
system.iobus.pkt_count_system.ruby.l0_cntrl0.sequencer.mem-master-port::system.pc.south_bridge.io_apic.pio            6                       # Packet count per connected master and slave (bytes)
system.iobus.pkt_count_system.ruby.l0_cntrl0.sequencer.mem-master-port::system.pc.com_1.pio         1854                       # Packet count per connected master and slave (bytes)
system.iobus.pkt_count_system.ruby.l0_cntrl0.sequencer.mem-master-port::system.ruby.l0_cntrl0.sequencer.pio-slave-port          658                       # Packet count per connected master and slave (bytes)
system.iobus.pkt_count_system.ruby.l0_cntrl0.sequencer.mem-master-port::system.ruby.l0_cntrl1.sequencer.pio-slave-port            2                       # Packet count per connected master and slave (bytes)
system.iobus.pkt_count_system.ruby.l0_cntrl0.sequencer.mem-master-port::total         2520                       # Packet count per connected master and slave (bytes)
system.iobus.pkt_count_system.ruby.l0_cntrl1.sequencer.mem-master-port::system.pc.south_bridge.io_apic.pio            8                       # Packet count per connected master and slave (bytes)
system.iobus.pkt_count_system.ruby.l0_cntrl1.sequencer.mem-master-port::system.ruby.l0_cntrl0.sequencer.pio-slave-port            2                       # Packet count per connected master and slave (bytes)
system.iobus.pkt_count_system.ruby.l0_cntrl1.sequencer.mem-master-port::system.ruby.l0_cntrl1.sequencer.pio-slave-port          670                       # Packet count per connected master and slave (bytes)
system.iobus.pkt_count_system.ruby.l0_cntrl1.sequencer.mem-master-port::system.ruby.l0_cntrl2.sequencer.pio-slave-port            4                       # Packet count per connected master and slave (bytes)
system.iobus.pkt_count_system.ruby.l0_cntrl1.sequencer.mem-master-port::total          684                       # Packet count per connected master and slave (bytes)
system.iobus.pkt_count_system.ruby.l0_cntrl2.sequencer.mem-master-port::system.pc.com_1.pio            2                       # Packet count per connected master and slave (bytes)
system.iobus.pkt_count_system.ruby.l0_cntrl2.sequencer.mem-master-port::system.ruby.l0_cntrl2.sequencer.pio-slave-port          658                       # Packet count per connected master and slave (bytes)
system.iobus.pkt_count_system.ruby.l0_cntrl2.sequencer.mem-master-port::system.ruby.l0_cntrl3.sequencer.pio-slave-port            2                       # Packet count per connected master and slave (bytes)
system.iobus.pkt_count_system.ruby.l0_cntrl2.sequencer.mem-master-port::total          662                       # Packet count per connected master and slave (bytes)
system.iobus.pkt_count_system.ruby.l0_cntrl3.sequencer.mem-master-port::system.ruby.l0_cntrl0.sequencer.pio-slave-port            2                       # Packet count per connected master and slave (bytes)
system.iobus.pkt_count_system.ruby.l0_cntrl3.sequencer.mem-master-port::system.ruby.l0_cntrl1.sequencer.pio-slave-port            2                       # Packet count per connected master and slave (bytes)
system.iobus.pkt_count_system.ruby.l0_cntrl3.sequencer.mem-master-port::system.ruby.l0_cntrl2.sequencer.pio-slave-port            2                       # Packet count per connected master and slave (bytes)
system.iobus.pkt_count_system.ruby.l0_cntrl3.sequencer.mem-master-port::system.ruby.l0_cntrl3.sequencer.pio-slave-port          664                       # Packet count per connected master and slave (bytes)
system.iobus.pkt_count_system.ruby.l0_cntrl3.sequencer.mem-master-port::total          670                       # Packet count per connected master and slave (bytes)
system.iobus.pkt_count::total                    4540                       # Packet count per connected master and slave (bytes)
system.iobus.pkt_size_system.pc.south_bridge.io_apic.int_master::system.ruby.l0_cntrl0.sequencer.pio-slave-port            4                       # Cumulative packet size per connected master and slave (bytes)
system.iobus.pkt_size_system.pc.south_bridge.io_apic.int_master::system.ruby.l0_cntrl1.sequencer.pio-slave-port            4                       # Cumulative packet size per connected master and slave (bytes)
system.iobus.pkt_size_system.pc.south_bridge.io_apic.int_master::total            8                       # Cumulative packet size per connected master and slave (bytes)
system.iobus.pkt_size_system.ruby.l0_cntrl0.sequencer.mem-master-port::system.pc.south_bridge.io_apic.pio           12                       # Cumulative packet size per connected master and slave (bytes)
system.iobus.pkt_size_system.ruby.l0_cntrl0.sequencer.mem-master-port::system.pc.com_1.pio          927                       # Cumulative packet size per connected master and slave (bytes)
system.iobus.pkt_size_system.ruby.l0_cntrl0.sequencer.mem-master-port::system.ruby.l0_cntrl0.sequencer.pio-slave-port         1316                       # Cumulative packet size per connected master and slave (bytes)
system.iobus.pkt_size_system.ruby.l0_cntrl0.sequencer.mem-master-port::system.ruby.l0_cntrl1.sequencer.pio-slave-port            4                       # Cumulative packet size per connected master and slave (bytes)
system.iobus.pkt_size_system.ruby.l0_cntrl0.sequencer.mem-master-port::total         2259                       # Cumulative packet size per connected master and slave (bytes)
system.iobus.pkt_size_system.ruby.l0_cntrl1.sequencer.mem-master-port::system.pc.south_bridge.io_apic.pio           16                       # Cumulative packet size per connected master and slave (bytes)
system.iobus.pkt_size_system.ruby.l0_cntrl1.sequencer.mem-master-port::system.ruby.l0_cntrl0.sequencer.pio-slave-port            4                       # Cumulative packet size per connected master and slave (bytes)
system.iobus.pkt_size_system.ruby.l0_cntrl1.sequencer.mem-master-port::system.ruby.l0_cntrl1.sequencer.pio-slave-port         1340                       # Cumulative packet size per connected master and slave (bytes)
system.iobus.pkt_size_system.ruby.l0_cntrl1.sequencer.mem-master-port::system.ruby.l0_cntrl2.sequencer.pio-slave-port            8                       # Cumulative packet size per connected master and slave (bytes)
system.iobus.pkt_size_system.ruby.l0_cntrl1.sequencer.mem-master-port::total         1368                       # Cumulative packet size per connected master and slave (bytes)
system.iobus.pkt_size_system.ruby.l0_cntrl2.sequencer.mem-master-port::system.pc.com_1.pio            1                       # Cumulative packet size per connected master and slave (bytes)
system.iobus.pkt_size_system.ruby.l0_cntrl2.sequencer.mem-master-port::system.ruby.l0_cntrl2.sequencer.pio-slave-port         1316                       # Cumulative packet size per connected master and slave (bytes)
system.iobus.pkt_size_system.ruby.l0_cntrl2.sequencer.mem-master-port::system.ruby.l0_cntrl3.sequencer.pio-slave-port            4                       # Cumulative packet size per connected master and slave (bytes)
system.iobus.pkt_size_system.ruby.l0_cntrl2.sequencer.mem-master-port::total         1321                       # Cumulative packet size per connected master and slave (bytes)
system.iobus.pkt_size_system.ruby.l0_cntrl3.sequencer.mem-master-port::system.ruby.l0_cntrl0.sequencer.pio-slave-port            4                       # Cumulative packet size per connected master and slave (bytes)
system.iobus.pkt_size_system.ruby.l0_cntrl3.sequencer.mem-master-port::system.ruby.l0_cntrl1.sequencer.pio-slave-port            4                       # Cumulative packet size per connected master and slave (bytes)
system.iobus.pkt_size_system.ruby.l0_cntrl3.sequencer.mem-master-port::system.ruby.l0_cntrl2.sequencer.pio-slave-port            4                       # Cumulative packet size per connected master and slave (bytes)
system.iobus.pkt_size_system.ruby.l0_cntrl3.sequencer.mem-master-port::system.ruby.l0_cntrl3.sequencer.pio-slave-port         1328                       # Cumulative packet size per connected master and slave (bytes)
system.iobus.pkt_size_system.ruby.l0_cntrl3.sequencer.mem-master-port::total         1340                       # Cumulative packet size per connected master and slave (bytes)
system.iobus.pkt_size::total                     6296                       # Cumulative packet size per connected master and slave (bytes)
system.iobus.reqLayer8.occupancy                12498                       # Layer occupancy (ticks)
system.iobus.reqLayer8.utilization                0.0                       # Layer utilization (%)
system.iobus.reqLayer12.occupancy             1208500                       # Layer occupancy (ticks)
system.iobus.reqLayer12.utilization               0.0                       # Layer utilization (%)
system.iobus.reqLayer17.occupancy              766999                       # Layer occupancy (ticks)
system.iobus.reqLayer17.utilization               0.0                       # Layer utilization (%)
system.iobus.reqLayer18.occupancy              864782                       # Layer occupancy (ticks)
system.iobus.reqLayer18.utilization               0.0                       # Layer utilization (%)
system.iobus.reqLayer19.occupancy              771000                       # Layer occupancy (ticks)
system.iobus.reqLayer19.utilization               0.0                       # Layer utilization (%)
system.iobus.reqLayer20.occupancy              779498                       # Layer occupancy (ticks)
system.iobus.reqLayer20.utilization               0.0                       # Layer utilization (%)
system.iobus.respLayer0.occupancy                3000                       # Layer occupancy (ticks)
system.iobus.respLayer0.utilization               0.0                       # Layer utilization (%)
system.iobus.respLayer2.occupancy             2121500                       # Layer occupancy (ticks)
system.iobus.respLayer2.utilization               0.0                       # Layer utilization (%)
system.iobus.respLayer4.occupancy              515000                       # Layer occupancy (ticks)
system.iobus.respLayer4.utilization               0.0                       # Layer utilization (%)
system.iobus.respLayer6.occupancy              496500                       # Layer occupancy (ticks)
system.iobus.respLayer6.utilization               0.0                       # Layer utilization (%)
system.iobus.respLayer8.occupancy              504500                       # Layer occupancy (ticks)
system.iobus.respLayer8.utilization               0.0                       # Layer utilization (%)
system.pc.south_bridge.ide.disks.dma_read_full_pages            0                       # Number of full page size DMA reads (not PRD).
system.pc.south_bridge.ide.disks.dma_read_bytes            0                       # Number of bytes transfered via DMA reads (not PRD).
system.pc.south_bridge.ide.disks.dma_read_txs            0                       # Number of DMA read transactions (not PRD).
system.pc.south_bridge.ide.disks.dma_write_full_pages            0                       # Number of full page size DMA writes.
system.pc.south_bridge.ide.disks.dma_write_bytes            0                       # Number of bytes transfered via DMA writes.
system.pc.south_bridge.ide.disks.dma_write_txs            0                       # Number of DMA write transactions.
system.ruby.clk_domain.clock                      500                       # Clock period in ticks
system.ruby.delayHist::bucket_size                  4                       # delay histogram for all message
system.ruby.delayHist::max_bucket                  39                       # delay histogram for all message
system.ruby.delayHist::samples               96836891                       # delay histogram for all message
system.ruby.delayHist::mean                  0.514295                       # delay histogram for all message
system.ruby.delayHist::stdev                 1.962527                       # delay histogram for all message
system.ruby.delayHist                    |    90614267     93.57%     93.57% |        6806      0.01%     93.58% |     6214001      6.42%    100.00% |         487      0.00%    100.00% |        1311      0.00%    100.00% |           4      0.00%    100.00% |          15      0.00%    100.00% |           0      0.00%    100.00% |           0      0.00%    100.00% |           0      0.00%    100.00% # delay histogram for all message
system.ruby.delayHist::total                 96836891                       # delay histogram for all message
system.ruby.outstanding_req_hist_seqr::bucket_size            1                      
system.ruby.outstanding_req_hist_seqr::max_bucket            9                      
system.ruby.outstanding_req_hist_seqr::samples    936887211                      
system.ruby.outstanding_req_hist_seqr::mean     1.000000                      
system.ruby.outstanding_req_hist_seqr::gmean     1.000000                      
system.ruby.outstanding_req_hist_seqr::stdev     0.000500                      
system.ruby.outstanding_req_hist_seqr    |           0      0.00%      0.00% |   936886977    100.00%    100.00% |         234      0.00%    100.00% |           0      0.00%    100.00% |           0      0.00%    100.00% |           0      0.00%    100.00% |           0      0.00%    100.00% |           0      0.00%    100.00% |           0      0.00%    100.00% |           0      0.00%    100.00%
system.ruby.outstanding_req_hist_seqr::total    936887211                      
system.ruby.latency_hist_seqr::bucket_size          256                      
system.ruby.latency_hist_seqr::max_bucket         2559                      
system.ruby.latency_hist_seqr::samples      936887211                      
system.ruby.latency_hist_seqr::mean          1.775392                      
system.ruby.latency_hist_seqr::gmean         1.094715                      
system.ruby.latency_hist_seqr::stdev        10.734926                      
system.ruby.latency_hist_seqr            |   936735344     99.98%     99.98% |       70885      0.01%     99.99% |       63252      0.01%    100.00% |       10026      0.00%    100.00% |        6625      0.00%    100.00% |         672      0.00%    100.00% |         371      0.00%    100.00% |          35      0.00%    100.00% |           1      0.00%    100.00% |           0      0.00%    100.00%
system.ruby.latency_hist_seqr::total        936887211                      
system.ruby.hit_latency_hist_seqr::bucket_size            1                      
system.ruby.hit_latency_hist_seqr::max_bucket            9                      
system.ruby.hit_latency_hist_seqr::samples    897358413                      
system.ruby.hit_latency_hist_seqr::mean             1                      
system.ruby.hit_latency_hist_seqr::gmean            1                      
system.ruby.hit_latency_hist_seqr        |           0      0.00%      0.00% |   897358413    100.00%    100.00% |           0      0.00%    100.00% |           0      0.00%    100.00% |           0      0.00%    100.00% |           0      0.00%    100.00% |           0      0.00%    100.00% |           0      0.00%    100.00% |           0      0.00%    100.00% |           0      0.00%    100.00%
system.ruby.hit_latency_hist_seqr::total    897358413                      
system.ruby.miss_latency_hist_seqr::bucket_size          256                      
system.ruby.miss_latency_hist_seqr::max_bucket         2559                      
system.ruby.miss_latency_hist_seqr::samples     39528798                      
system.ruby.miss_latency_hist_seqr::mean    19.377858                      
system.ruby.miss_latency_hist_seqr::gmean     8.540557                      
system.ruby.miss_latency_hist_seqr::stdev    49.069540                      
system.ruby.miss_latency_hist_seqr       |    39376931     99.62%     99.62% |       70885      0.18%     99.80% |       63252      0.16%     99.96% |       10026      0.03%     99.98% |        6625      0.02%    100.00% |         672      0.00%    100.00% |         371      0.00%    100.00% |          35      0.00%    100.00% |           1      0.00%    100.00% |           0      0.00%    100.00%
system.ruby.miss_latency_hist_seqr::total     39528798                      
system.ruby.l0_cntrl0.Dcache.demand_hits       527190                       # Number of cache demand hits
system.ruby.l0_cntrl0.Dcache.demand_misses        67265                       # Number of cache demand misses
system.ruby.l0_cntrl0.Dcache.demand_accesses       594455                       # Number of cache demand accesses
system.ruby.l0_cntrl0.Icache.demand_hits      1442685                       # Number of cache demand hits
system.ruby.l0_cntrl0.Icache.demand_misses        89948                       # Number of cache demand misses
system.ruby.l0_cntrl0.Icache.demand_accesses      1532633                       # Number of cache demand accesses
system.ruby.l0_cntrl1.Dcache.demand_hits    127717339                       # Number of cache demand hits
system.ruby.l0_cntrl1.Dcache.demand_misses     38116154                       # Number of cache demand misses
system.ruby.l0_cntrl1.Dcache.demand_accesses    165833493                       # Number of cache demand accesses
system.ruby.l0_cntrl1.Icache.demand_hits    761197441                       # Number of cache demand hits
system.ruby.l0_cntrl1.Icache.demand_misses       909036                       # Number of cache demand misses
[...]
system.ruby.L1Cache_Controller.WB_Ack::total     10311428                      
system.ruby.L1Cache_Controller.I.Load    |       82261      1.15%      1.15% |     6782642     95.08%     96.23% |       88247      1.24%     97.47% |      180460      2.53%    100.00%
system.ruby.L1Cache_Controller.I.Load::total      7133610                      
system.ruby.L1Cache_Controller.I.Store   |       13092      0.36%      0.36% |     3558470     97.89%     98.25% |       18772      0.52%     98.76% |       44988      1.24%    100.00%
system.ruby.L1Cache_Controller.I.Store::total      3635322                      
system.ruby.L1Cache_Controller.I.Inv     |        1809     17.53%     17.53% |        4403     42.66%     60.18% |        1865     18.07%     78.25% |        2245     21.75%    100.00%
system.ruby.L1Cache_Controller.I.Inv::total        10322                      
system.ruby.L1Cache_Controller.S.Load    |       66657     12.64%     12.64% |      237522     45.02%     57.66% |       75124     14.24%     71.90% |      148236     28.10%    100.00%
system.ruby.L1Cache_Controller.S.Load::total       527539                      
system.ruby.L1Cache_Controller.S.Store   |        1764     36.80%     36.80% |         732     15.27%     52.08% |        1055     22.01%     74.09% |        1242     25.91%    100.00%
system.ruby.L1Cache_Controller.S.Store::total         4793                      
system.ruby.L1Cache_Controller.S.L0_Invalidate_Own |       37124      8.94%      8.94% |      301222     72.52%     81.46% |       33486      8.06%     89.52% |       43523     10.48%    100.00%
system.ruby.L1Cache_Controller.S.L0_Invalidate_Own::total       415355                      
system.ruby.L1Cache_Controller.S.L0_Invalidate_Else |        5070     29.66%     29.66% |         205      1.20%     30.86% |        5827     34.09%     64.96% |        5989     35.04%    100.00%
system.ruby.L1Cache_Controller.S.L0_Invalidate_Else::total        17091                      
system.ruby.L1Cache_Controller.SS.Load   |        1310     24.73%     24.73% |         207      3.91%     28.64% |        2892     54.60%     83.24% |         888     16.76%    100.00%
system.ruby.L1Cache_Controller.SS.Load::total         5297                      
system.ruby.L1Cache_Controller.SS.Store  |         362     57.37%     57.37% |           9      1.43%     58.80% |         184     29.16%     87.96% |          76     12.04%    100.00%
system.ruby.L1Cache_Controller.SS.Store::total          631                      
system.ruby.L1Cache_Controller.SS.Inv    |        5698     26.28%     26.28% |         618      2.85%     29.13% |        7991     36.86%     65.99% |        7374     34.01%    100.00%
system.ruby.L1Cache_Controller.SS.Inv::total        21681                      
system.ruby.L1Cache_Controller.SS.L1_Replacement |       37864      9.05%      9.05% |      301986     72.15%     81.19% |       34299      8.19%     89.39% |       44423     10.61%    100.00%
system.ruby.L1Cache_Controller.SS.L1_Replacement::total       418572                      
system.ruby.L1Cache_Controller.E.WriteBack |       37331      0.58%      0.58% |     6199671     96.75%     97.33% |       46208      0.72%     98.05% |      124722      1.95%    100.00%
system.ruby.L1Cache_Controller.E.WriteBack::total      6407932                      
system.ruby.L1Cache_Controller.E.L0_Invalidate_Own |        1129      0.39%      0.39% |      280784     97.36%     97.76% |        1897      0.66%     98.41% |        4575      1.59%    100.00%
system.ruby.L1Cache_Controller.E.L0_Invalidate_Own::total       288385                      
system.ruby.L1Cache_Controller.E.L0_Invalidate_Else |        1084     20.93%     20.93% |         182      3.51%     24.44% |        2639     50.96%     75.40% |        1274     24.60%    100.00%
system.ruby.L1Cache_Controller.E.L0_Invalidate_Else::total         5179                      
system.ruby.L1Cache_Controller.EE.Inv    |         564     30.65%     30.65% |           8      0.43%     31.09% |         672     36.52%     67.61% |         596     32.39%    100.00%
system.ruby.L1Cache_Controller.EE.Inv::total         1840                      
system.ruby.L1Cache_Controller.EE.L1_Replacement |        1026      0.36%      0.36% |      280105     97.57%     97.93% |        1632      0.57%     98.50% |        4309      1.50%    100.00%
system.ruby.L1Cache_Controller.EE.L1_Replacement::total       287072                      
system.ruby.L1Cache_Controller.EE.Fwd_GETX |           1      4.35%      4.35% |           5     21.74%     26.09% |          11     47.83%     73.91% |           6     26.09%    100.00%
system.ruby.L1Cache_Controller.EE.Fwd_GETX::total           23                      
system.ruby.L1Cache_Controller.EE.Fwd_GETS |         432     16.75%     16.75% |         111      4.30%     21.05% |        1673     64.87%     85.92% |         363     14.08%    100.00%
system.ruby.L1Cache_Controller.EE.Fwd_GETS::total         2579                      
system.ruby.L1Cache_Controller.M.WriteBack |       64139      0.20%      0.20% |    32179256     98.49%     98.69% |      116575      0.36%     99.05% |      311164      0.95%    100.00%
system.ruby.L1Cache_Controller.M.WriteBack::total     32671134                      
system.ruby.L1Cache_Controller.M.L0_Invalidate_Own |        3745      5.02%      5.02% |       63311     84.88%     89.90% |        2945      3.95%     93.85% |        4585      6.15%    100.00%
system.ruby.L1Cache_Controller.M.L0_Invalidate_Own::total        74586                      
system.ruby.L1Cache_Controller.M.L0_Invalidate_Else |        3120     32.17%     32.17% |         569      5.87%     38.04% |        3149     32.47%     70.52% |        2859     29.48%    100.00%
system.ruby.L1Cache_Controller.M.L0_Invalidate_Else::total         9697                      
system.ruby.L1Cache_Controller.MM.Load   |       42873      0.21%      0.21% |    20352495     98.46%     98.67% |       82973      0.40%     99.07% |      191815      0.93%    100.00%
system.ruby.L1Cache_Controller.MM.Load::total     20670156                      
system.ruby.L1Cache_Controller.MM.Store  |       12907      0.15%      0.15% |     8331435     98.66%     98.81% |       19684      0.23%     99.05% |       80484      0.95%    100.00%
system.ruby.L1Cache_Controller.MM.Store::total      8444510                      
system.ruby.L1Cache_Controller.MM.Inv    |        5527     43.08%     43.08% |         124      0.97%     44.04% |        3488     27.18%     71.23% |        3692     28.77%    100.00%
system.ruby.L1Cache_Controller.MM.Inv::total        12831                      
system.ruby.L1Cache_Controller.MM.L1_Replacement |       44050      0.44%      0.44% |     9757872     97.34%     97.78% |       58177      0.58%     98.36% |      164257      1.64%    100.00%
system.ruby.L1Cache_Controller.MM.L1_Replacement::total     10024356                      
system.ruby.L1Cache_Controller.MM.Fwd_GETX |         618     24.38%     24.38% |         383     15.11%     39.49% |         743     29.31%     68.80% |         791     31.20%    100.00%
system.ruby.L1Cache_Controller.MM.Fwd_GETX::total         2535                      
system.ruby.L1Cache_Controller.MM.Fwd_GETS |        2561     23.27%     23.27% |        1190     10.81%     34.08% |        4368     39.69%     73.78% |        2886     26.22%    100.00%
system.ruby.L1Cache_Controller.MM.Fwd_GETS::total        11005                      
system.ruby.L1Cache_Controller.IS.Data_Exclusive |       39546      0.59%      0.59% |     6480647     96.70%     97.29% |       50745      0.76%     98.05% |      130550      1.95%    100.00%
system.ruby.L1Cache_Controller.IS.Data_Exclusive::total      6701488                      
system.ruby.L1Cache_Controller.IS.DataS_fromL1 |        5381     39.61%     39.61% |        1558     11.47%     51.08% |        2880     21.20%     72.28% |        3766     27.72%    100.00%
system.ruby.L1Cache_Controller.IS.DataS_fromL1::total        13585                      
system.ruby.L1Cache_Controller.IS.Data_all_Acks |       37334      8.92%      8.92% |      300437     71.78%     80.70% |       34622      8.27%     88.97% |       46144     11.03%    100.00%
system.ruby.L1Cache_Controller.IS.Data_all_Acks::total       418537                      
system.ruby.L1Cache_Controller.IM.Data   |         539     36.30%     36.30% |         344     23.16%     59.46% |         155     10.44%     69.90% |         447     30.10%    100.00%
system.ruby.L1Cache_Controller.IM.Data::total         1485                      
system.ruby.L1Cache_Controller.IM.Data_all_Acks |       12553      0.35%      0.35% |     3558126     97.92%     98.26% |       18619      0.51%     98.77% |       44543      1.23%    100.00%
system.ruby.L1Cache_Controller.IM.Data_all_Acks::total      3633841                      
system.ruby.L1Cache_Controller.SM.Inv    |           0      0.00%      0.00% |           0      0.00%      0.00% |           2     50.00%     50.00% |           2     50.00%    100.00%
system.ruby.L1Cache_Controller.SM.Inv::total            4                      
system.ruby.L1Cache_Controller.SM.Ack    |        5747     51.66%     51.66% |        1842     16.56%     68.22% |        1574     14.15%     82.37% |        1961     17.63%    100.00%
system.ruby.L1Cache_Controller.SM.Ack::total        11124                      
system.ruby.L1Cache_Controller.SM.Ack_all |        2665     38.60%     38.60% |        1085     15.71%     54.31% |        1392     20.16%     74.47% |        1763     25.53%    100.00%
system.ruby.L1Cache_Controller.SM.Ack_all::total         6905                      
system.ruby.L1Cache_Controller.M_I.Fwd_GETS |           0      0.00%      0.00% |           0      0.00%      0.00% |           0      0.00%      0.00% |           1    100.00%    100.00%
system.ruby.L1Cache_Controller.M_I.Fwd_GETS::total            1                      
system.ruby.L1Cache_Controller.M_I.WB_Ack |       45076      0.44%      0.44% |    10037977     97.35%     97.79% |       59809      0.58%     98.37% |      168565      1.63%    100.00%
system.ruby.L1Cache_Controller.M_I.WB_Ack::total     10311427                      
system.ruby.L1Cache_Controller.SINK_WB_ACK.WB_Ack |           0      0.00%      0.00% |           0      0.00%      0.00% |           0      0.00%      0.00% |           1    100.00%    100.00%
system.ruby.L1Cache_Controller.SINK_WB_ACK.WB_Ack::total            1                      
system.ruby.L1Cache_Controller.S_IL0.L0_Invalidate_Own |       37124      8.94%      8.94% |      301222     72.52%     81.46% |       33486      8.06%     89.52% |       43523     10.48%    100.00%
system.ruby.L1Cache_Controller.S_IL0.L0_Invalidate_Own::total       415355                      
system.ruby.L1Cache_Controller.S_IL0.L0_Invalidate_Else |        5070     29.66%     29.66% |         205      1.20%     30.86% |        5827     34.09%     64.96% |        5989     35.04%    100.00%
system.ruby.L1Cache_Controller.S_IL0.L0_Invalidate_Else::total        17091                      
system.ruby.L1Cache_Controller.S_IL0.L0_Ack |       42194      9.76%      9.76% |      301427     69.70%     79.46% |       39313      9.09%     88.55% |       49512     11.45%    100.00%
system.ruby.L1Cache_Controller.S_IL0.L0_Ack::total       432446                      
system.ruby.L1Cache_Controller.E_IL0.WriteBack |           0      0.00%      0.00% |           0      0.00%      0.00% |           0      0.00%      0.00% |           2    100.00%    100.00%
system.ruby.L1Cache_Controller.E_IL0.WriteBack::total            2                      
system.ruby.L1Cache_Controller.E_IL0.L0_DataAck |         190      9.28%      9.28% |         737     35.99%     45.26% |         548     26.76%     72.02% |         573     27.98%    100.00%
system.ruby.L1Cache_Controller.E_IL0.L0_DataAck::total         2048                      
system.ruby.L1Cache_Controller.E_IL0.L0_Invalidate_Own |        1129      0.39%      0.39% |      280784     97.36%     97.76% |        1897      0.66%     98.41% |        4575      1.59%    100.00%
system.ruby.L1Cache_Controller.E_IL0.L0_Invalidate_Own::total       288385                      
system.ruby.L1Cache_Controller.E_IL0.L0_Invalidate_Else |        1084     20.93%     20.93% |         182      3.51%     24.44% |        2639     50.96%     75.40% |        1274     24.60%    100.00%
system.ruby.L1Cache_Controller.E_IL0.L0_Invalidate_Else::total         5179                      
system.ruby.L1Cache_Controller.E_IL0.L0_Ack |        2023      0.69%      0.69% |      280229     96.13%     96.82% |        3988      1.37%     98.19% |        5274      1.81%    100.00%
system.ruby.L1Cache_Controller.E_IL0.L0_Ack::total       291514                      
system.ruby.L1Cache_Controller.M_IL0.L0_DataAck |        5048     15.47%     15.47% |       18649     57.16%     72.64% |        4218     12.93%     85.57% |        4709     14.43%    100.00%
system.ruby.L1Cache_Controller.M_IL0.L0_DataAck::total        32624                      
system.ruby.L1Cache_Controller.M_IL0.L0_Invalidate_Own |        3745      5.02%      5.02% |       63311     84.88%     89.90% |        2945      3.95%     93.85% |        4585      6.15%    100.00%
system.ruby.L1Cache_Controller.M_IL0.L0_Invalidate_Own::total        74586                      
system.ruby.L1Cache_Controller.M_IL0.L0_Invalidate_Else |        3120     32.17%     32.17% |         569      5.87%     38.04% |        3149     32.47%     70.52% |        2859     29.48%    100.00%
system.ruby.L1Cache_Controller.M_IL0.L0_Invalidate_Else::total         9697                      
system.ruby.L1Cache_Controller.M_IL0.L0_Ack |        1817      3.52%      3.52% |       45231     87.56%     91.07% |        1876      3.63%     94.71% |        2735      5.29%    100.00%
system.ruby.L1Cache_Controller.M_IL0.L0_Ack::total        51659                      
system.ruby.L1Cache_Controller.MM_IL0.Fwd_GETS |           0      0.00%      0.00% |           0      0.00%      0.00% |           0      0.00%      0.00% |           2    100.00%    100.00%
system.ruby.L1Cache_Controller.MM_IL0.Fwd_GETS::total            2                      
system.ruby.L1Cache_Controller.MM_IL0.L0_Ack |           0      0.00%      0.00% |           0      0.00%      0.00% |           0      0.00%      0.00% |           2    100.00%    100.00%
system.ruby.L1Cache_Controller.MM_IL0.L0_Ack::total            2                      
system.ruby.L2Cache_Controller.L1_GETS        7133848      0.00%      0.00%
system.ruby.L2Cache_Controller.L1_GETX        3635332      0.00%      0.00%
system.ruby.L2Cache_Controller.L1_UPGRADE         5424      0.00%      0.00%
system.ruby.L2Cache_Controller.L1_PUTX       10311429      0.00%      0.00%
system.ruby.L2Cache_Controller.L2_Replacement      1597211      0.00%      0.00%
system.ruby.L2Cache_Controller.L2_Replacement_clean      1098501      0.00%      0.00%
system.ruby.L2Cache_Controller.Mem_Data       2704257      0.00%      0.00%
system.ruby.L2Cache_Controller.Mem_Ack        2695732      0.00%      0.00%
system.ruby.L2Cache_Controller.WB_Data          13476      0.00%      0.00%
system.ruby.L2Cache_Controller.WB_Data_clean        12940      0.00%      0.00%
system.ruby.L2Cache_Controller.Ack              13205      0.00%      0.00%
system.ruby.L2Cache_Controller.Ack_all           8033      0.00%      0.00%
system.ruby.L2Cache_Controller.Unblock          13585      0.00%      0.00%
system.ruby.L2Cache_Controller.Exclusive_Unblock     10342233      0.00%      0.00%
system.ruby.L2Cache_Controller.MEM_Inv             40      0.00%      0.00%
system.ruby.L2Cache_Controller.NP.L1_GETS      1649886      0.00%      0.00%
system.ruby.L2Cache_Controller.NP.L1_GETX      1054371      0.00%      0.00%
system.ruby.L2Cache_Controller.SS.L1_GETS       418451      0.00%      0.00%
system.ruby.L2Cache_Controller.SS.L1_GETX         1485      0.00%      0.00%
system.ruby.L2Cache_Controller.SS.L1_UPGRADE         5420      0.00%      0.00%
system.ruby.L2Cache_Controller.SS.L1_PUTX            1      0.00%      0.00%
system.ruby.L2Cache_Controller.SS.L2_Replacement          399      0.00%      0.00%
system.ruby.L2Cache_Controller.SS.L2_Replacement_clean         5794      0.00%      0.00%
system.ruby.L2Cache_Controller.M.L1_GETS      5051645      0.00%      0.00%
system.ruby.L2Cache_Controller.M.L1_GETX      2576912      0.00%      0.00%
system.ruby.L2Cache_Controller.M.L2_Replacement      1595772      0.00%      0.00%
system.ruby.L2Cache_Controller.M.L2_Replacement_clean      1079078      0.00%      0.00%
system.ruby.L2Cache_Controller.M.MEM_Inv           18      0.00%      0.00%
system.ruby.L2Cache_Controller.MT.L1_GETS        13585      0.00%      0.00%
system.ruby.L2Cache_Controller.MT.L1_GETX         2558      0.00%      0.00%
system.ruby.L2Cache_Controller.MT.L1_PUTX     10311427      0.00%      0.00%
system.ruby.L2Cache_Controller.MT.L2_Replacement         1040      0.00%      0.00%
system.ruby.L2Cache_Controller.MT.L2_Replacement_clean        13629      0.00%      0.00%
system.ruby.L2Cache_Controller.MT.MEM_Inv            2      0.00%      0.00%
system.ruby.L2Cache_Controller.M_I.Mem_Ack      2695732      0.00%      0.00%
system.ruby.L2Cache_Controller.M_I.MEM_Inv           18      0.00%      0.00%
system.ruby.L2Cache_Controller.MT_I.WB_Data          859      0.00%      0.00%
system.ruby.L2Cache_Controller.MT_I.WB_Data_clean           83      0.00%      0.00%
system.ruby.L2Cache_Controller.MT_I.Ack_all          100      0.00%      0.00%
system.ruby.L2Cache_Controller.MT_I.MEM_Inv            2      0.00%      0.00%
system.ruby.L2Cache_Controller.MCT_I.WB_Data         7722      0.00%      0.00%
system.ruby.L2Cache_Controller.MCT_I.WB_Data_clean         4167      0.00%      0.00%
system.ruby.L2Cache_Controller.MCT_I.Ack_all         1740      0.00%      0.00%
system.ruby.L2Cache_Controller.I_I.Ack          12722      0.00%      0.00%
system.ruby.L2Cache_Controller.I_I.Ack_all         5794      0.00%      0.00%
system.ruby.L2Cache_Controller.S_I.Ack            483      0.00%      0.00%
system.ruby.L2Cache_Controller.S_I.Ack_all          399      0.00%      0.00%
system.ruby.L2Cache_Controller.ISS.L1_GETS           43      0.00%      0.00%
system.ruby.L2Cache_Controller.ISS.Mem_Data      1649843      0.00%      0.00%
system.ruby.L2Cache_Controller.IS.Mem_Data           43      0.00%      0.00%
system.ruby.L2Cache_Controller.IM.Mem_Data      1054371      0.00%      0.00%
system.ruby.L2Cache_Controller.SS_MB.L1_GETS           84      0.00%      0.00%
system.ruby.L2Cache_Controller.SS_MB.L1_GETX            2      0.00%      0.00%
system.ruby.L2Cache_Controller.SS_MB.L1_UPGRADE            4      0.00%      0.00%
system.ruby.L2Cache_Controller.SS_MB.Exclusive_Unblock         6905      0.00%      0.00%
system.ruby.L2Cache_Controller.MT_MB.L1_GETS          143      0.00%      0.00%
system.ruby.L2Cache_Controller.MT_MB.L1_GETX            3      0.00%      0.00%
system.ruby.L2Cache_Controller.MT_MB.Exclusive_Unblock     10335328      0.00%      0.00%
system.ruby.L2Cache_Controller.MT_IIB.L1_GETS           11      0.00%      0.00%
system.ruby.L2Cache_Controller.MT_IIB.L1_GETX            1      0.00%      0.00%
system.ruby.L2Cache_Controller.MT_IIB.L1_PUTX            1      0.00%      0.00%
system.ruby.L2Cache_Controller.MT_IIB.WB_Data         4889      0.00%      0.00%
system.ruby.L2Cache_Controller.MT_IIB.WB_Data_clean         8670      0.00%      0.00%
system.ruby.L2Cache_Controller.MT_IIB.Unblock           26      0.00%      0.00%
system.ruby.L2Cache_Controller.MT_IB.WB_Data            6      0.00%      0.00%
system.ruby.L2Cache_Controller.MT_IB.WB_Data_clean           20      0.00%      0.00%
system.ruby.L2Cache_Controller.MT_SB.Unblock        13559      0.00%      0.00%

---------- End Simulation Statistics   ----------
