
---------- Begin Simulation Statistics ----------
sim_seconds                                  0.818747                       # Number of seconds simulated
sim_ticks                                818746932000                       # Number of ticks simulated
final_tick                               54456156436501                       # Number of ticks from beginning of simulation (restored from checkpoints and never reset)
sim_freq                                 1000000000000                       # Frequency of simulated ticks
host_inst_rate                                 103537                       # Simulator instruction rate (inst/s)
host_op_rate                                   171486                       # Simulator op (including micro ops) rate (op/s)
host_tick_rate                              302794133                       # Simulator tick rate (ticks/s)
host_mem_usage                                1890316                       # Number of bytes of host memory used
host_seconds                                  2703.97                       # Real time elapsed on the host
sim_insts                                   279960572                       # Number of instructions simulated
sim_ops                                     463692259                       # Number of ops (including micro ops) simulated
system.voltage_domain.voltage                       1                       # Voltage in Volts
system.clk_domain.clock                          1000                       # Clock period in ticks
system.mem_ctrls.bytes_read::ruby.dir_cntrl0    244115712                       # Number of bytes read from this memory
system.mem_ctrls.bytes_read::total          244115712                       # Number of bytes read from this memory
system.mem_ctrls.bytes_written::ruby.dir_cntrl0    130359744                       # Number of bytes written to this memory
system.mem_ctrls.bytes_written::total       130359744                       # Number of bytes written to this memory
system.mem_ctrls.num_reads::ruby.dir_cntrl0      3814308                       # Number of read requests responded to by this memory
system.mem_ctrls.num_reads::total             3814308                       # Number of read requests responded to by this memory
system.mem_ctrls.num_writes::ruby.dir_cntrl0      2036871                       # Number of write requests responded to by this memory
system.mem_ctrls.num_writes::total            2036871                       # Number of write requests responded to by this memory
system.mem_ctrls.bw_read::ruby.dir_cntrl0    298157712                       # Total read bandwidth from this memory (bytes/s)
system.mem_ctrls.bw_read::total             298157712                       # Total read bandwidth from this memory (bytes/s)
system.mem_ctrls.bw_write::ruby.dir_cntrl0    159218605                       # Write bandwidth from this memory (bytes/s)
system.mem_ctrls.bw_write::total            159218605                       # Write bandwidth from this memory (bytes/s)
system.mem_ctrls.bw_total::ruby.dir_cntrl0    457376317                       # Total bandwidth to/from this memory (bytes/s)
system.mem_ctrls.bw_total::total            457376317                       # Total bandwidth to/from this memory (bytes/s)
system.mem_ctrls.readReqs                     3814308                       # Number of read requests accepted
system.mem_ctrls.writeReqs                    2036871                       # Number of write requests accepted
system.mem_ctrls.readBursts                   3814308                       # Number of DRAM read bursts, including those serviced by the write queue
system.mem_ctrls.writeBursts                  2036871                       # Number of DRAM write bursts, including those merged in the write queue
system.mem_ctrls.bytesReadDRAM              244054464                       # Total number of bytes read from DRAM
system.mem_ctrls.bytesReadWrQ                   61248                       # Total number of bytes read from write queue
system.mem_ctrls.bytesWritten               130359936                       # Total number of bytes written to DRAM
system.mem_ctrls.bytesReadSys               244115712                       # Total read bytes from the system interface side
system.mem_ctrls.bytesWrittenSys            130359744                       # Total written bytes from the system interface side
system.mem_ctrls.servicedByWrQ                    957                       # Number of DRAM read bursts serviced by the write queue
system.mem_ctrls.mergedWrBursts                     3                       # Number of DRAM write bursts merged with an existing one
system.mem_ctrls.neitherReadNorWriteReqs            0                       # Number of requests that are neither read nor write
system.mem_ctrls.perBankRdBursts::0            233862                       # Per bank write bursts
system.mem_ctrls.perBankRdBursts::1            261934                       # Per bank write bursts
system.mem_ctrls.perBankRdBursts::2            243437                       # Per bank write bursts
system.mem_ctrls.perBankRdBursts::3            240993                       # Per bank write bursts
system.mem_ctrls.perBankRdBursts::4            249894                       # Per bank write bursts
system.mem_ctrls.perBankRdBursts::5            244698                       # Per bank write bursts
system.mem_ctrls.perBankRdBursts::6            237970                       # Per bank write bursts
system.mem_ctrls.perBankRdBursts::7            233049                       # Per bank write bursts
system.mem_ctrls.perBankRdBursts::8            253901                       # Per bank write bursts
system.mem_ctrls.perBankRdBursts::9            227720                       # Per bank write bursts
system.mem_ctrls.perBankRdBursts::10           224791                       # Per bank write bursts
system.mem_ctrls.perBankRdBursts::11           227287                       # Per bank write bursts
system.mem_ctrls.perBankRdBursts::12           228313                       # Per bank write bursts
system.mem_ctrls.perBankRdBursts::13           240142                       # Per bank write bursts
system.mem_ctrls.perBankRdBursts::14           231635                       # Per bank write bursts
system.mem_ctrls.perBankRdBursts::15           233725                       # Per bank write bursts
system.mem_ctrls.perBankWrBursts::0            125898                       # Per bank write bursts
system.mem_ctrls.perBankWrBursts::1            132950                       # Per bank write bursts
system.mem_ctrls.perBankWrBursts::2            127578                       # Per bank write bursts
system.mem_ctrls.perBankWrBursts::3            126902                       # Per bank write bursts
system.mem_ctrls.perBankWrBursts::4            128168                       # Per bank write bursts
system.mem_ctrls.perBankWrBursts::5            128139                       # Per bank write bursts
system.mem_ctrls.perBankWrBursts::6            131236                       # Per bank write bursts
system.mem_ctrls.perBankWrBursts::7            125595                       # Per bank write bursts
system.mem_ctrls.perBankWrBursts::8            132305                       # Per bank write bursts
system.mem_ctrls.perBankWrBursts::9            125644                       # Per bank write bursts
system.mem_ctrls.perBankWrBursts::10           124577                       # Per bank write bursts
system.mem_ctrls.perBankWrBursts::11           125744                       # Per bank write bursts
system.mem_ctrls.perBankWrBursts::12           126780                       # Per bank write bursts
system.mem_ctrls.perBankWrBursts::13           127268                       # Per bank write bursts
system.mem_ctrls.perBankWrBursts::14           125345                       # Per bank write bursts
system.mem_ctrls.perBankWrBursts::15           122745                       # Per bank write bursts
system.mem_ctrls.numRdRetry                         0                       # Number of times read queue was full causing retry
system.mem_ctrls.numWrRetry                         0                       # Number of times write queue was full causing retry
system.mem_ctrls.totGap                  818746888500                       # Total gap between requests
system.mem_ctrls.readPktSize::0                     0                       # Read request sizes (log2)
system.mem_ctrls.readPktSize::1                     0                       # Read request sizes (log2)
system.mem_ctrls.readPktSize::2                     0                       # Read request sizes (log2)
system.mem_ctrls.readPktSize::3                     0                       # Read request sizes (log2)
system.mem_ctrls.readPktSize::4                     0                       # Read request sizes (log2)
system.mem_ctrls.readPktSize::5                     0                       # Read request sizes (log2)
system.mem_ctrls.readPktSize::6               3814308                       # Read request sizes (log2)
system.mem_ctrls.writePktSize::0                    0                       # Write request sizes (log2)
system.mem_ctrls.writePktSize::1                    0                       # Write request sizes (log2)
system.mem_ctrls.writePktSize::2                    0                       # Write request sizes (log2)
system.mem_ctrls.writePktSize::3                    0                       # Write request sizes (log2)
system.mem_ctrls.writePktSize::4                    0                       # Write request sizes (log2)
system.mem_ctrls.writePktSize::5                    0                       # Write request sizes (log2)
system.mem_ctrls.writePktSize::6              2036871                       # Write request sizes (log2)
system.mem_ctrls.rdQLenPdf::0                 3775701                       # What read queue length does an incoming req see
system.mem_ctrls.rdQLenPdf::1                   37473                       # What read queue length does an incoming req see
system.mem_ctrls.rdQLenPdf::2                     177                       # What read queue length does an incoming req see
system.mem_ctrls.rdQLenPdf::3                       0                       # What read queue length does an incoming req see
system.mem_ctrls.rdQLenPdf::4                       0                       # What read queue length does an incoming req see
system.mem_ctrls.rdQLenPdf::5                       0                       # What read queue length does an incoming req see
system.mem_ctrls.rdQLenPdf::6                       0                       # What read queue length does an incoming req see
system.mem_ctrls.rdQLenPdf::7                       0                       # What read queue length does an incoming req see
system.mem_ctrls.rdQLenPdf::8                       0                       # What read queue length does an incoming req see
system.mem_ctrls.rdQLenPdf::9                       0                       # What read queue length does an incoming req see
system.mem_ctrls.rdQLenPdf::10                      0                       # What read queue length does an incoming req see
system.mem_ctrls.rdQLenPdf::11                      0                       # What read queue length does an incoming req see
system.mem_ctrls.rdQLenPdf::12                      0                       # What read queue length does an incoming req see
system.mem_ctrls.rdQLenPdf::13                      0                       # What read queue length does an incoming req see
system.mem_ctrls.rdQLenPdf::14                      0                       # What read queue length does an incoming req see
system.mem_ctrls.rdQLenPdf::15                      0                       # What read queue length does an incoming req see
system.mem_ctrls.rdQLenPdf::16                      0                       # What read queue length does an incoming req see
system.mem_ctrls.rdQLenPdf::17                      0                       # What read queue length does an incoming req see
system.mem_ctrls.rdQLenPdf::18                      0                       # What read queue length does an incoming req see
system.mem_ctrls.rdQLenPdf::19                      0                       # What read queue length does an incoming req see
system.mem_ctrls.rdQLenPdf::20                      0                       # What read queue length does an incoming req see
system.mem_ctrls.rdQLenPdf::21                      0                       # What read queue length does an incoming req see
system.mem_ctrls.rdQLenPdf::22                      0                       # What read queue length does an incoming req see
system.mem_ctrls.rdQLenPdf::23                      0                       # What read queue length does an incoming req see
system.mem_ctrls.rdQLenPdf::24                      0                       # What read queue length does an incoming req see
system.mem_ctrls.rdQLenPdf::25                      0                       # What read queue length does an incoming req see
system.mem_ctrls.rdQLenPdf::26                      0                       # What read queue length does an incoming req see
system.mem_ctrls.rdQLenPdf::27                      0                       # What read queue length does an incoming req see
system.mem_ctrls.rdQLenPdf::28                      0                       # What read queue length does an incoming req see
system.mem_ctrls.rdQLenPdf::29                      0                       # What read queue length does an incoming req see
system.mem_ctrls.rdQLenPdf::30                      0                       # What read queue length does an incoming req see
system.mem_ctrls.rdQLenPdf::31                      0                       # What read queue length does an incoming req see
system.mem_ctrls.wrQLenPdf::0                       0                       # What write queue length does an incoming req see
system.mem_ctrls.wrQLenPdf::1                       0                       # What write queue length does an incoming req see
system.mem_ctrls.wrQLenPdf::2                       0                       # What write queue length does an incoming req see
system.mem_ctrls.wrQLenPdf::3                       0                       # What write queue length does an incoming req see
system.mem_ctrls.wrQLenPdf::4                       0                       # What write queue length does an incoming req see
system.mem_ctrls.wrQLenPdf::5                       0                       # What write queue length does an incoming req see
system.mem_ctrls.wrQLenPdf::6                       0                       # What write queue length does an incoming req see
system.mem_ctrls.wrQLenPdf::7                       0                       # What write queue length does an incoming req see
system.mem_ctrls.wrQLenPdf::8                       0                       # What write queue length does an incoming req see
system.mem_ctrls.wrQLenPdf::9                       0                       # What write queue length does an incoming req see
system.mem_ctrls.wrQLenPdf::10                      0                       # What write queue length does an incoming req see
system.mem_ctrls.wrQLenPdf::11                      0                       # What write queue length does an incoming req see
system.mem_ctrls.wrQLenPdf::12                      0                       # What write queue length does an incoming req see
system.mem_ctrls.wrQLenPdf::13                      0                       # What write queue length does an incoming req see
system.mem_ctrls.wrQLenPdf::14                      0                       # What write queue length does an incoming req see
system.mem_ctrls.wrQLenPdf::15                   2778                       # What write queue length does an incoming req see
system.mem_ctrls.wrQLenPdf::16                   3241                       # What write queue length does an incoming req see
system.mem_ctrls.wrQLenPdf::17                 125983                       # What write queue length does an incoming req see
system.mem_ctrls.wrQLenPdf::18                 127095                       # What write queue length does an incoming req see
system.mem_ctrls.wrQLenPdf::19                 127066                       # What write queue length does an incoming req see
system.mem_ctrls.wrQLenPdf::20                 127073                       # What write queue length does an incoming req see
system.mem_ctrls.wrQLenPdf::21                 127048                       # What write queue length does an incoming req see
system.mem_ctrls.wrQLenPdf::22                 126989                       # What write queue length does an incoming req see
system.mem_ctrls.wrQLenPdf::23                 127025                       # What write queue length does an incoming req see
system.mem_ctrls.wrQLenPdf::24                 127003                       # What write queue length does an incoming req see
system.mem_ctrls.wrQLenPdf::25                 126973                       # What write queue length does an incoming req see
system.mem_ctrls.wrQLenPdf::26                 126970                       # What write queue length does an incoming req see
system.mem_ctrls.wrQLenPdf::27                 126976                       # What write queue length does an incoming req see
system.mem_ctrls.wrQLenPdf::28                 126959                       # What write queue length does an incoming req see
system.mem_ctrls.wrQLenPdf::29                 126933                       # What write queue length does an incoming req see
system.mem_ctrls.wrQLenPdf::30                 126927                       # What write queue length does an incoming req see
system.mem_ctrls.wrQLenPdf::31                 126897                       # What write queue length does an incoming req see
system.mem_ctrls.wrQLenPdf::32                 126888                       # What write queue length does an incoming req see
system.mem_ctrls.wrQLenPdf::33                     23                       # What write queue length does an incoming req see
system.mem_ctrls.wrQLenPdf::34                      4                       # What write queue length does an incoming req see
system.mem_ctrls.wrQLenPdf::35                      3                       # What write queue length does an incoming req see
system.mem_ctrls.wrQLenPdf::36                      1                       # What write queue length does an incoming req see
system.mem_ctrls.wrQLenPdf::37                      2                       # What write queue length does an incoming req see
system.mem_ctrls.wrQLenPdf::38                      1                       # What write queue length does an incoming req see
system.mem_ctrls.wrQLenPdf::39                      1                       # What write queue length does an incoming req see
system.mem_ctrls.wrQLenPdf::40                      2                       # What write queue length does an incoming req see
system.mem_ctrls.wrQLenPdf::41                      1                       # What write queue length does an incoming req see
system.mem_ctrls.wrQLenPdf::42                      1                       # What write queue length does an incoming req see
system.mem_ctrls.wrQLenPdf::43                      2                       # What write queue length does an incoming req see
system.mem_ctrls.wrQLenPdf::44                      1                       # What write queue length does an incoming req see
system.mem_ctrls.wrQLenPdf::45                      1                       # What write queue length does an incoming req see
system.mem_ctrls.wrQLenPdf::46                      1                       # What write queue length does an incoming req see
system.mem_ctrls.wrQLenPdf::47                      0                       # What write queue length does an incoming req see
system.mem_ctrls.wrQLenPdf::48                      0                       # What write queue length does an incoming req see
system.mem_ctrls.wrQLenPdf::49                      0                       # What write queue length does an incoming req see
system.mem_ctrls.wrQLenPdf::50                      0                       # What write queue length does an incoming req see
system.mem_ctrls.wrQLenPdf::51                      0                       # What write queue length does an incoming req see
system.mem_ctrls.wrQLenPdf::52                      0                       # What write queue length does an incoming req see
system.mem_ctrls.wrQLenPdf::53                      0                       # What write queue length does an incoming req see
system.mem_ctrls.wrQLenPdf::54                      0                       # What write queue length does an incoming req see
system.mem_ctrls.wrQLenPdf::55                      0                       # What write queue length does an incoming req see
system.mem_ctrls.wrQLenPdf::56                      0                       # What write queue length does an incoming req see
system.mem_ctrls.wrQLenPdf::57                      0                       # What write queue length does an incoming req see
system.mem_ctrls.wrQLenPdf::58                      0                       # What write queue length does an incoming req see
system.mem_ctrls.wrQLenPdf::59                      0                       # What write queue length does an incoming req see
system.mem_ctrls.wrQLenPdf::60                      0                       # What write queue length does an incoming req see
system.mem_ctrls.wrQLenPdf::61                      0                       # What write queue length does an incoming req see
system.mem_ctrls.wrQLenPdf::62                      0                       # What write queue length does an incoming req see
system.mem_ctrls.wrQLenPdf::63                      0                       # What write queue length does an incoming req see
system.mem_ctrls.bytesPerActivate::samples      5194541                       # Bytes accessed per row activation
system.mem_ctrls.bytesPerActivate::mean     72.078425                       # Bytes accessed per row activation
system.mem_ctrls.bytesPerActivate::gmean    68.933317                       # Bytes accessed per row activation
system.mem_ctrls.bytesPerActivate::stdev    37.805306                       # Bytes accessed per row activation
system.mem_ctrls.bytesPerActivate::0-127      4698984     90.46%     90.46% # Bytes accessed per row activation
system.mem_ctrls.bytesPerActivate::128-255       468936      9.03%     99.49% # Bytes accessed per row activation
system.mem_ctrls.bytesPerActivate::256-383        15755      0.30%     99.79% # Bytes accessed per row activation
system.mem_ctrls.bytesPerActivate::384-511         5014      0.10%     99.89% # Bytes accessed per row activation
system.mem_ctrls.bytesPerActivate::512-639         1001      0.02%     99.91% # Bytes accessed per row activation
system.mem_ctrls.bytesPerActivate::640-767          653      0.01%     99.92% # Bytes accessed per row activation
system.mem_ctrls.bytesPerActivate::768-895          451      0.01%     99.93% # Bytes accessed per row activation
system.mem_ctrls.bytesPerActivate::896-1023          349      0.01%     99.93% # Bytes accessed per row activation
system.mem_ctrls.bytesPerActivate::1024-1151         3398      0.07%    100.00% # Bytes accessed per row activation
system.mem_ctrls.bytesPerActivate::total      5194541                       # Bytes accessed per row activation
system.mem_ctrls.rdPerTurnAround::samples       126881                       # Reads before turning the bus around for writes
system.mem_ctrls.rdPerTurnAround::mean      30.054870                       # Reads before turning the bus around for writes
system.mem_ctrls.rdPerTurnAround::stdev      8.673230                       # Reads before turning the bus around for writes
system.mem_ctrls.rdPerTurnAround::0-15            111      0.09%      0.09% # Reads before turning the bus around for writes
system.mem_ctrls.rdPerTurnAround::16-31         85203     67.15%     67.24% # Reads before turning the bus around for writes
system.mem_ctrls.rdPerTurnAround::32-47         40705     32.08%     99.32% # Reads before turning the bus around for writes
system.mem_ctrls.rdPerTurnAround::48-63           277      0.22%     99.54% # Reads before turning the bus around for writes
system.mem_ctrls.rdPerTurnAround::64-79            26      0.02%     99.56% # Reads before turning the bus around for writes
system.mem_ctrls.rdPerTurnAround::80-95            78      0.06%     99.62% # Reads before turning the bus around for writes
system.mem_ctrls.rdPerTurnAround::96-111          117      0.09%     99.71% # Reads before turning the bus around for writes
system.mem_ctrls.rdPerTurnAround::112-127           98      0.08%     99.79% # Reads before turning the bus around for writes
system.mem_ctrls.rdPerTurnAround::128-143          109      0.09%     99.88% # Reads before turning the bus around for writes
system.mem_ctrls.rdPerTurnAround::144-159           89      0.07%     99.95% # Reads before turning the bus around for writes
system.mem_ctrls.rdPerTurnAround::160-175           40      0.03%     99.98% # Reads before turning the bus around for writes
system.mem_ctrls.rdPerTurnAround::176-191           12      0.01%     99.99% # Reads before turning the bus around for writes
system.mem_ctrls.rdPerTurnAround::192-207            4      0.00%     99.99% # Reads before turning the bus around for writes
system.mem_ctrls.rdPerTurnAround::208-223            4      0.00%     99.99% # Reads before turning the bus around for writes
system.mem_ctrls.rdPerTurnAround::224-239            3      0.00%    100.00% # Reads before turning the bus around for writes
system.mem_ctrls.rdPerTurnAround::256-271            1      0.00%    100.00% # Reads before turning the bus around for writes
system.mem_ctrls.rdPerTurnAround::304-319            1      0.00%    100.00% # Reads before turning the bus around for writes
system.mem_ctrls.rdPerTurnAround::336-351            1      0.00%    100.00% # Reads before turning the bus around for writes
system.mem_ctrls.rdPerTurnAround::400-415            1      0.00%    100.00% # Reads before turning the bus around for writes
system.mem_ctrls.rdPerTurnAround::448-463            1      0.00%    100.00% # Reads before turning the bus around for writes
system.mem_ctrls.rdPerTurnAround::total        126881                       # Reads before turning the bus around for writes
system.mem_ctrls.wrPerTurnAround::samples       126881                       # Writes before turning the bus around for reads
system.mem_ctrls.wrPerTurnAround::mean      16.053420                       # Writes before turning the bus around for reads
system.mem_ctrls.wrPerTurnAround::gmean     16.049608                       # Writes before turning the bus around for reads
system.mem_ctrls.wrPerTurnAround::stdev      0.382011                       # Writes before turning the bus around for reads
system.mem_ctrls.wrPerTurnAround::16           123638     97.44%     97.44% # Writes before turning the bus around for reads
system.mem_ctrls.wrPerTurnAround::17              301      0.24%     97.68% # Writes before turning the bus around for reads
system.mem_ctrls.wrPerTurnAround::18             2809      2.21%     99.90% # Writes before turning the bus around for reads
system.mem_ctrls.wrPerTurnAround::19               35      0.03%     99.92% # Writes before turning the bus around for reads
system.mem_ctrls.wrPerTurnAround::20                2      0.00%     99.92% # Writes before turning the bus around for reads
system.mem_ctrls.wrPerTurnAround::21               26      0.02%     99.94% # Writes before turning the bus around for reads
system.mem_ctrls.wrPerTurnAround::22               10      0.01%     99.95% # Writes before turning the bus around for reads
system.mem_ctrls.wrPerTurnAround::23                6      0.00%     99.96% # Writes before turning the bus around for reads
system.mem_ctrls.wrPerTurnAround::24               33      0.03%     99.98% # Writes before turning the bus around for reads
system.mem_ctrls.wrPerTurnAround::25                7      0.01%     99.99% # Writes before turning the bus around for reads
system.mem_ctrls.wrPerTurnAround::26                2      0.00%     99.99% # Writes before turning the bus around for reads
system.mem_ctrls.wrPerTurnAround::27                1      0.00%     99.99% # Writes before turning the bus around for reads
system.mem_ctrls.wrPerTurnAround::28                9      0.01%    100.00% # Writes before turning the bus around for reads
system.mem_ctrls.wrPerTurnAround::29                1      0.00%    100.00% # Writes before turning the bus around for reads
system.mem_ctrls.wrPerTurnAround::51                1      0.00%    100.00% # Writes before turning the bus around for reads
system.mem_ctrls.wrPerTurnAround::total        126881                       # Writes before turning the bus around for reads
system.mem_ctrls.totQLat                  97943224427                       # Total ticks spent queuing
system.mem_ctrls.totMemAccLat            169443555677                       # Total ticks spent from burst creation until serviced by the DRAM
system.mem_ctrls.totBusLat                19066755000                       # Total ticks spent in databus transfers
system.mem_ctrls.avgQLat                     25684.29                       # Average queueing delay per DRAM burst
system.mem_ctrls.avgBusLat                    5000.00                       # Average bus latency per DRAM burst
system.mem_ctrls.avgMemAccLat                44434.29                       # Average memory access latency per DRAM burst
system.mem_ctrls.avgRdBW                       298.08                       # Average DRAM read bandwidth in MiByte/s
system.mem_ctrls.avgWrBW                       159.22                       # Average achieved write bandwidth in MiByte/s
system.mem_ctrls.avgRdBWSys                    298.16                       # Average system read bandwidth in MiByte/s
system.mem_ctrls.avgWrBWSys                    159.22                       # Average system write bandwidth in MiByte/s
system.mem_ctrls.peakBW                      12800.00                       # Theoretical peak bandwidth in MiByte/s
system.mem_ctrls.busUtil                         3.57                       # Data bus utilization in percentage
system.mem_ctrls.busUtilRead                     2.33                       # Data bus utilization in percentage for reads
system.mem_ctrls.busUtilWrite                    1.24                       # Data bus utilization in percentage for writes
system.mem_ctrls.avgRdQLen                       1.00                       # Average read queue length when enqueuing
system.mem_ctrls.avgWrQLen                      25.63                       # Average write queue length when enqueuing
system.mem_ctrls.readRowHits                   564761                       # Number of row buffer hits during reads
system.mem_ctrls.writeRowHits                   90923                       # Number of row buffer hits during writes
system.mem_ctrls.readRowHitRate                 14.81                       # Row buffer hit rate for reads
system.mem_ctrls.writeRowHitRate                 4.46                       # Row buffer hit rate for writes
system.mem_ctrls.avgGap                     139928.53                       # Average gap between requests
system.mem_ctrls.pageHitRate                    11.21                       # Row buffer hit rate, read and write combined
system.mem_ctrls_0.actEnergy              19976241600                       # Energy for activate commands per rank (pJ)
system.mem_ctrls_0.preEnergy              10899735000                       # Energy for precharge commands per rank (pJ)
system.mem_ctrls_0.readEnergy             15281487000                       # Energy for read commands per rank (pJ)
system.mem_ctrls_0.writeEnergy             6654117600                       # Energy for write commands per rank (pJ)
system.mem_ctrls_0.refreshEnergy          53974489920                       # Energy for refresh commands per rank (pJ)
system.mem_ctrls_0.actBackEnergy         525755970720                       # Energy for active background per rank (pJ)
system.mem_ctrls_0.preBackEnergy          34632879000                       # Energy for precharge background per rank (pJ)
system.mem_ctrls_0.totalEnergy           667174920840                       # Total energy per rank (pJ)
system.mem_ctrls_0.averagePower            807.355641                       # Core power per rank (mW)
system.mem_ctrls_0.memoryStateTime::IDLE  51030332252                       # Time in different power states
system.mem_ctrls_0.memoryStateTime::REF   27339780000                       # Time in different power states
system.mem_ctrls_0.memoryStateTime::PRE_PDN            0                       # Time in different power states
system.mem_ctrls_0.memoryStateTime::ACT  740376613498                       # Time in different power states
system.mem_ctrls_0.memoryStateTime::ACT_PDN            0                       # Time in different power states
system.mem_ctrls_1.actEnergy              19340324640                       # Energy for activate commands per rank (pJ)
system.mem_ctrls_1.preEnergy              10552756500                       # Energy for precharge commands per rank (pJ)
system.mem_ctrls_1.readEnergy             14682431400                       # Energy for read commands per rank (pJ)
system.mem_ctrls_1.writeEnergy             6552900000                       # Energy for write commands per rank (pJ)
system.mem_ctrls_1.refreshEnergy          53974489920                       # Energy for refresh commands per rank (pJ)
system.mem_ctrls_1.actBackEnergy         528888914730                       # Energy for active background per rank (pJ)
system.mem_ctrls_1.preBackEnergy          31884682500                       # Energy for precharge background per rank (pJ)
system.mem_ctrls_1.totalEnergy           665876499690                       # Total energy per rank (pJ)
system.mem_ctrls_1.averagePower            805.784407                       # Core power per rank (mW)
system.mem_ctrls_1.memoryStateTime::IDLE  46993352251                       # Time in different power states
system.mem_ctrls_1.memoryStateTime::REF   27339780000                       # Time in different power states
system.mem_ctrls_1.memoryStateTime::PRE_PDN            0                       # Time in different power states
system.mem_ctrls_1.memoryStateTime::ACT  744414413999                       # Time in different power states
system.mem_ctrls_1.memoryStateTime::ACT_PDN            0                       # Time in different power states
system.cpu_voltage_domain.voltage                   1                       # Voltage in Volts
system.cpu_clk_domain.clock                       500                       # Clock period in ticks
system.cpu0.apic_clk_domain.clock                8000                       # Clock period in ticks
system.cpu0.numCycles                      1631956168                       # number of cpu cycles simulated
system.cpu0.numWorkItemsStarted                     0                       # number of work items this cpu started
system.cpu0.numWorkItemsCompleted                   0                       # number of work items this cpu completed
system.cpu0.kern.inst.arm                           0                       # number of arm instructions executed
system.cpu0.kern.inst.quiesce                       0                       # number of quiesce instructions executed
system.cpu0.committedInsts                    1811005                       # Number of instructions committed
system.cpu0.committedOps                      3735183                       # Number of ops (including micro ops) committed
system.cpu0.num_int_alu_accesses              3629943                       # Number of integer alu accesses
system.cpu0.num_fp_alu_accesses                    70                       # Number of float alu accesses
system.cpu0.num_func_calls                      83280                       # number of times a function call or return occured
system.cpu0.num_conditional_control_insts       314495                       # number of instructions that are conditional controls
system.cpu0.num_int_insts                     3629943                       # number of integer instructions
system.cpu0.num_fp_insts                           70                       # number of float instructions
system.cpu0.num_int_register_reads            6903072                       # number of times the integer registers were read
system.cpu0.num_int_register_writes           2977726                       # number of times the integer registers were written
system.cpu0.num_fp_register_reads                  87                       # number of times the floating registers were read
system.cpu0.num_fp_register_writes                 28                       # number of times the floating registers were written
system.cpu0.num_cc_register_reads             2378226                       # number of times the CC registers were read
system.cpu0.num_cc_register_writes            1446352                       # number of times the CC registers were written
system.cpu0.num_mem_refs                       705341                       # number of memory refs
system.cpu0.num_load_insts                     438106                       # Number of load instructions
system.cpu0.num_store_insts                    267235                       # Number of store instructions
system.cpu0.num_idle_cycles              1620298094.222712                       # Number of idle cycles
system.cpu0.num_busy_cycles              11658073.777288                       # Number of busy cycles
system.cpu0.not_idle_fraction                0.007144                       # Percentage of non-idle cycles
system.cpu0.idle_fraction                    0.992856                       # Percentage of idle cycles
system.cpu0.Branches                           425669                       # Number of branches fetched
system.cpu0.op_class::No_OpClass                27577      0.74%      0.74% # Class of executed instruction
system.cpu0.op_class::IntAlu                  2990846     80.07%     80.81% # Class of executed instruction
system.cpu0.op_class::IntMult                    3507      0.09%     80.90% # Class of executed instruction
system.cpu0.op_class::IntDiv                     7910      0.21%     81.12% # Class of executed instruction
system.cpu0.op_class::FloatAdd                     24      0.00%     81.12% # Class of executed instruction
system.cpu0.op_class::FloatCmp                      0      0.00%     81.12% # Class of executed instruction
system.cpu0.op_class::FloatCvt                      0      0.00%     81.12% # Class of executed instruction
system.cpu0.op_class::FloatMult                     0      0.00%     81.12% # Class of executed instruction
system.cpu0.op_class::FloatDiv                      0      0.00%     81.12% # Class of executed instruction
system.cpu0.op_class::FloatSqrt                     0      0.00%     81.12% # Class of executed instruction
system.cpu0.op_class::SimdAdd                       0      0.00%     81.12% # Class of executed instruction
system.cpu0.op_class::SimdAddAcc                    0      0.00%     81.12% # Class of executed instruction
system.cpu0.op_class::SimdAlu                       0      0.00%     81.12% # Class of executed instruction
system.cpu0.op_class::SimdCmp                       0      0.00%     81.12% # Class of executed instruction
system.cpu0.op_class::SimdCvt                       0      0.00%     81.12% # Class of executed instruction
system.cpu0.op_class::SimdMisc                      0      0.00%     81.12% # Class of executed instruction
system.cpu0.op_class::SimdMult                      0      0.00%     81.12% # Class of executed instruction
system.cpu0.op_class::SimdMultAcc                   0      0.00%     81.12% # Class of executed instruction
system.cpu0.op_class::SimdShift                     0      0.00%     81.12% # Class of executed instruction
system.cpu0.op_class::SimdShiftAcc                  0      0.00%     81.12% # Class of executed instruction
system.cpu0.op_class::SimdSqrt                      0      0.00%     81.12% # Class of executed instruction
system.cpu0.op_class::SimdFloatAdd                  0      0.00%     81.12% # Class of executed instruction
system.cpu0.op_class::SimdFloatAlu                  0      0.00%     81.12% # Class of executed instruction
system.cpu0.op_class::SimdFloatCmp                  0      0.00%     81.12% # Class of executed instruction
system.cpu0.op_class::SimdFloatCvt                  0      0.00%     81.12% # Class of executed instruction
system.cpu0.op_class::SimdFloatDiv                  0      0.00%     81.12% # Class of executed instruction
system.cpu0.op_class::SimdFloatMisc                 0      0.00%     81.12% # Class of executed instruction
system.cpu0.op_class::SimdFloatMult                 0      0.00%     81.12% # Class of executed instruction
system.cpu0.op_class::SimdFloatMultAcc              0      0.00%     81.12% # Class of executed instruction
system.cpu0.op_class::SimdFloatSqrt                 0      0.00%     81.12% # Class of executed instruction
system.cpu0.op_class::MemRead                  438106     11.73%     92.85% # Class of executed instruction
system.cpu0.op_class::MemWrite                 267235      7.15%    100.00% # Class of executed instruction
system.cpu0.op_class::IprAccess                     0      0.00%    100.00% # Class of executed instruction
system.cpu0.op_class::InstPrefetch                  0      0.00%    100.00% # Class of executed instruction
system.cpu0.op_class::total                   3735205                       # Class of executed instruction
system.cpu1.apic_clk_domain.clock                8000                       # Clock period in ticks
system.cpu1.numCycles                      1637466429                       # number of cpu cycles simulated
system.cpu1.numWorkItemsStarted                     0                       # number of work items this cpu started
system.cpu1.numWorkItemsCompleted                   0                       # number of work items this cpu completed
system.cpu1.kern.inst.arm                           0                       # number of arm instructions executed
system.cpu1.kern.inst.quiesce                       0                       # number of quiesce instructions executed
system.cpu1.committedInsts                    4252698                       # Number of instructions committed
system.cpu1.committedOps                      8399727                       # Number of ops (including micro ops) committed
system.cpu1.num_int_alu_accesses              8263938                       # Number of integer alu accesses
system.cpu1.num_fp_alu_accesses                  1864                       # Number of float alu accesses
system.cpu1.num_func_calls                     199334                       # number of times a function call or return occured
system.cpu1.num_conditional_control_insts       743895                       # number of instructions that are conditional controls
system.cpu1.num_int_insts                     8263938                       # number of integer instructions
system.cpu1.num_fp_insts                         1864                       # number of float instructions
system.cpu1.num_int_register_reads           16204023                       # number of times the integer registers were read
system.cpu1.num_int_register_writes           6730425                       # number of times the integer registers were written
system.cpu1.num_fp_register_reads                3090                       # number of times the floating registers were read
system.cpu1.num_fp_register_writes               1490                       # number of times the floating registers were written
system.cpu1.num_cc_register_reads             5427126                       # number of times the CC registers were read
system.cpu1.num_cc_register_writes            2959397                       # number of times the CC registers were written
system.cpu1.num_mem_refs                      1740161                       # number of memory refs
system.cpu1.num_load_insts                    1126230                       # Number of load instructions
system.cpu1.num_store_insts                    613931                       # Number of store instructions
system.cpu1.num_idle_cycles              1615960876.337711                       # Number of idle cycles
system.cpu1.num_busy_cycles              21505552.662289                       # Number of busy cycles
system.cpu1.not_idle_fraction                0.013133                       # Percentage of non-idle cycles
system.cpu1.idle_fraction                    0.986867                       # Percentage of idle cycles
system.cpu1.Branches                           991116                       # Number of branches fetched
system.cpu1.op_class::No_OpClass                54382      0.65%      0.65% # Class of executed instruction
system.cpu1.op_class::IntAlu                  6584615     78.38%     79.03% # Class of executed instruction
system.cpu1.op_class::IntMult                    8652      0.10%     79.14% # Class of executed instruction
system.cpu1.op_class::IntDiv                    11185      0.13%     79.27% # Class of executed instruction
system.cpu1.op_class::FloatAdd                   1380      0.02%     79.28% # Class of executed instruction
system.cpu1.op_class::FloatCmp                      0      0.00%     79.28% # Class of executed instruction
system.cpu1.op_class::FloatCvt                      0      0.00%     79.28% # Class of executed instruction
system.cpu1.op_class::FloatMult                     0      0.00%     79.28% # Class of executed instruction
system.cpu1.op_class::FloatDiv                      0      0.00%     79.28% # Class of executed instruction
system.cpu1.op_class::FloatSqrt                     0      0.00%     79.28% # Class of executed instruction
system.cpu1.op_class::SimdAdd                       0      0.00%     79.28% # Class of executed instruction
system.cpu1.op_class::SimdAddAcc                    0      0.00%     79.28% # Class of executed instruction
system.cpu1.op_class::SimdAlu                       0      0.00%     79.28% # Class of executed instruction
system.cpu1.op_class::SimdCmp                       0      0.00%     79.28% # Class of executed instruction
system.cpu1.op_class::SimdCvt                       0      0.00%     79.28% # Class of executed instruction
system.cpu1.op_class::SimdMisc                      0      0.00%     79.28% # Class of executed instruction
system.cpu1.op_class::SimdMult                      0      0.00%     79.28% # Class of executed instruction
system.cpu1.op_class::SimdMultAcc                   0      0.00%     79.28% # Class of executed instruction
system.cpu1.op_class::SimdShift                     0      0.00%     79.28% # Class of executed instruction
system.cpu1.op_class::SimdShiftAcc                  0      0.00%     79.28% # Class of executed instruction
system.cpu1.op_class::SimdSqrt                      0      0.00%     79.28% # Class of executed instruction
system.cpu1.op_class::SimdFloatAdd                  0      0.00%     79.28% # Class of executed instruction
system.cpu1.op_class::SimdFloatAlu                  0      0.00%     79.28% # Class of executed instruction
system.cpu1.op_class::SimdFloatCmp                  0      0.00%     79.28% # Class of executed instruction
system.cpu1.op_class::SimdFloatCvt                  0      0.00%     79.28% # Class of executed instruction
system.cpu1.op_class::SimdFloatDiv                  0      0.00%     79.28% # Class of executed instruction
system.cpu1.op_class::SimdFloatMisc                 0      0.00%     79.28% # Class of executed instruction
system.cpu1.op_class::SimdFloatMult                 0      0.00%     79.28% # Class of executed instruction
system.cpu1.op_class::SimdFloatMultAcc              0      0.00%     79.28% # Class of executed instruction
system.cpu1.op_class::SimdFloatSqrt                 0      0.00%     79.28% # Class of executed instruction
system.cpu1.op_class::MemRead                 1126230     13.41%     92.69% # Class of executed instruction
system.cpu1.op_class::MemWrite                 613931      7.31%    100.00% # Class of executed instruction
system.cpu1.op_class::IprAccess                     0      0.00%    100.00% # Class of executed instruction
system.cpu1.op_class::InstPrefetch                  0      0.00%    100.00% # Class of executed instruction
system.cpu1.op_class::total                   8400375                       # Class of executed instruction
system.cpu2.apic_clk_domain.clock                8000                       # Clock period in ticks
system.cpu2.numCycles                      1637009648                       # number of cpu cycles simulated
system.cpu2.numWorkItemsStarted                     0                       # number of work items this cpu started
system.cpu2.numWorkItemsCompleted                   0                       # number of work items this cpu completed
system.cpu2.kern.inst.arm                           0                       # number of arm instructions executed
system.cpu2.kern.inst.quiesce                       0                       # number of quiesce instructions executed
system.cpu2.committedInsts                     964896                       # Number of instructions committed
system.cpu2.committedOps                      2007722                       # Number of ops (including micro ops) committed
system.cpu2.num_int_alu_accesses              1973792                       # Number of integer alu accesses
system.cpu2.num_fp_alu_accesses                    56                       # Number of float alu accesses
system.cpu2.num_func_calls                      50174                       # number of times a function call or return occured
system.cpu2.num_conditional_control_insts       179338                       # number of instructions that are conditional controls
system.cpu2.num_int_insts                     1973792                       # number of integer instructions
system.cpu2.num_fp_insts                           56                       # number of float instructions
system.cpu2.num_int_register_reads            3824835                       # number of times the integer registers were read
system.cpu2.num_int_register_writes           1611730                       # number of times the integer registers were written
system.cpu2.num_fp_register_reads                  83                       # number of times the floating registers were read
system.cpu2.num_fp_register_writes                 43                       # number of times the floating registers were written
system.cpu2.num_cc_register_reads             1307570                       # number of times the CC registers were read
system.cpu2.num_cc_register_writes             664681                       # number of times the CC registers were written
system.cpu2.num_mem_refs                       415067                       # number of memory refs
system.cpu2.num_load_insts                     261217                       # Number of load instructions
system.cpu2.num_store_insts                    153850                       # Number of store instructions
system.cpu2.num_idle_cycles              1631229202.849238                       # Number of idle cycles
system.cpu2.num_busy_cycles              5780445.150762                       # Number of busy cycles
system.cpu2.not_idle_fraction                0.003531                       # Percentage of non-idle cycles
system.cpu2.idle_fraction                    0.996469                       # Percentage of idle cycles
system.cpu2.Branches                           244418                       # Number of branches fetched
system.cpu2.op_class::No_OpClass                23818      1.19%      1.19% # Class of executed instruction
system.cpu2.op_class::IntAlu                  1558530     77.63%     78.81% # Class of executed instruction
system.cpu2.op_class::IntMult                    3234      0.16%     78.97% # Class of executed instruction
system.cpu2.op_class::IntDiv                     7070      0.35%     79.33% # Class of executed instruction
system.cpu2.op_class::FloatAdd                     30      0.00%     79.33% # Class of executed instruction
system.cpu2.op_class::FloatCmp                      0      0.00%     79.33% # Class of executed instruction
system.cpu2.op_class::FloatCvt                      0      0.00%     79.33% # Class of executed instruction
system.cpu2.op_class::FloatMult                     0      0.00%     79.33% # Class of executed instruction
system.cpu2.op_class::FloatDiv                      0      0.00%     79.33% # Class of executed instruction
system.cpu2.op_class::FloatSqrt                     0      0.00%     79.33% # Class of executed instruction
system.cpu2.op_class::SimdAdd                       0      0.00%     79.33% # Class of executed instruction
system.cpu2.op_class::SimdAddAcc                    0      0.00%     79.33% # Class of executed instruction
system.cpu2.op_class::SimdAlu                       0      0.00%     79.33% # Class of executed instruction
system.cpu2.op_class::SimdCmp                       0      0.00%     79.33% # Class of executed instruction
system.cpu2.op_class::SimdCvt                       0      0.00%     79.33% # Class of executed instruction
system.cpu2.op_class::SimdMisc                      0      0.00%     79.33% # Class of executed instruction
system.cpu2.op_class::SimdMult                      0      0.00%     79.33% # Class of executed instruction
system.cpu2.op_class::SimdMultAcc                   0      0.00%     79.33% # Class of executed instruction
system.cpu2.op_class::SimdShift                     0      0.00%     79.33% # Class of executed instruction
system.cpu2.op_class::SimdShiftAcc                  0      0.00%     79.33% # Class of executed instruction
system.cpu2.op_class::SimdSqrt                      0      0.00%     79.33% # Class of executed instruction
system.cpu2.op_class::SimdFloatAdd                  0      0.00%     79.33% # Class of executed instruction
system.cpu2.op_class::SimdFloatAlu                  0      0.00%     79.33% # Class of executed instruction
system.cpu2.op_class::SimdFloatCmp                  0      0.00%     79.33% # Class of executed instruction
system.cpu2.op_class::SimdFloatCvt                  0      0.00%     79.33% # Class of executed instruction
system.cpu2.op_class::SimdFloatDiv                  0      0.00%     79.33% # Class of executed instruction
system.cpu2.op_class::SimdFloatMisc                 0      0.00%     79.33% # Class of executed instruction
system.cpu2.op_class::SimdFloatMult                 0      0.00%     79.33% # Class of executed instruction
system.cpu2.op_class::SimdFloatMultAcc              0      0.00%     79.33% # Class of executed instruction
system.cpu2.op_class::SimdFloatSqrt                 0      0.00%     79.33% # Class of executed instruction
system.cpu2.op_class::MemRead                  261217     13.01%     92.34% # Class of executed instruction
system.cpu2.op_class::MemWrite                 153850      7.66%    100.00% # Class of executed instruction
system.cpu2.op_class::IprAccess                     0      0.00%    100.00% # Class of executed instruction
system.cpu2.op_class::InstPrefetch                  0      0.00%    100.00% # Class of executed instruction
system.cpu2.op_class::total                   2007749                       # Class of executed instruction
system.cpu3.apic_clk_domain.clock                8000                       # Clock period in ticks
system.cpu3.numCycles                      1637675670                       # number of cpu cycles simulated
system.cpu3.numWorkItemsStarted                     0                       # number of work items this cpu started
system.cpu3.numWorkItemsCompleted                   0                       # number of work items this cpu completed
system.cpu3.kern.inst.arm                           0                       # number of arm instructions executed
system.cpu3.kern.inst.quiesce                       0                       # number of quiesce instructions executed
system.cpu3.committedInsts                  269695311                       # Number of instructions committed
system.cpu3.committedOps                    443326337                       # Number of ops (including micro ops) committed
system.cpu3.num_int_alu_accesses            347291970                       # Number of integer alu accesses
system.cpu3.num_fp_alu_accesses             109595059                       # Number of float alu accesses
system.cpu3.num_func_calls                    5389455                       # number of times a function call or return occured
system.cpu3.num_conditional_control_insts     16486748                       # number of instructions that are conditional controls
system.cpu3.num_int_insts                   347291970                       # number of integer instructions
system.cpu3.num_fp_insts                    109595059                       # number of float instructions
system.cpu3.num_int_register_reads          738645212                       # number of times the integer registers were read
system.cpu3.num_int_register_writes         276667735                       # number of times the integer registers were written
system.cpu3.num_fp_register_reads           204618951                       # number of times the floating registers were read
system.cpu3.num_fp_register_writes          105642017                       # number of times the floating registers were written
system.cpu3.num_cc_register_reads           177899714                       # number of times the CC registers were read
system.cpu3.num_cc_register_writes          153046945                       # number of times the CC registers were written
system.cpu3.num_mem_refs                     93057143                       # number of memory refs
system.cpu3.num_load_insts                   73964430                       # Number of load instructions
system.cpu3.num_store_insts                  19092713                       # Number of store instructions
system.cpu3.num_idle_cycles              16187372.035507                       # Number of idle cycles
system.cpu3.num_busy_cycles              1621488297.964493                       # Number of busy cycles
system.cpu3.not_idle_fraction                0.990116                       # Percentage of non-idle cycles
system.cpu3.idle_fraction                    0.009884                       # Percentage of idle cycles
system.cpu3.Branches                         26576677                       # Number of branches fetched
system.cpu3.op_class::No_OpClass              3917668      0.88%      0.88% # Class of executed instruction
system.cpu3.op_class::IntAlu                255332521     57.59%     58.48% # Class of executed instruction
system.cpu3.op_class::IntMult                    4070      0.00%     58.48% # Class of executed instruction
system.cpu3.op_class::IntDiv                     1669      0.00%     58.48% # Class of executed instruction
system.cpu3.op_class::FloatAdd               91015845     20.53%     79.01% # Class of executed instruction
system.cpu3.op_class::FloatCmp                      0      0.00%     79.01% # Class of executed instruction
system.cpu3.op_class::FloatCvt                      0      0.00%     79.01% # Class of executed instruction
system.cpu3.op_class::FloatMult                     0      0.00%     79.01% # Class of executed instruction
system.cpu3.op_class::FloatDiv                      0      0.00%     79.01% # Class of executed instruction
system.cpu3.op_class::FloatSqrt                     0      0.00%     79.01% # Class of executed instruction
system.cpu3.op_class::SimdAdd                       0      0.00%     79.01% # Class of executed instruction
system.cpu3.op_class::SimdAddAcc                    0      0.00%     79.01% # Class of executed instruction
system.cpu3.op_class::SimdAlu                       0      0.00%     79.01% # Class of executed instruction
system.cpu3.op_class::SimdCmp                       0      0.00%     79.01% # Class of executed instruction
system.cpu3.op_class::SimdCvt                       0      0.00%     79.01% # Class of executed instruction
system.cpu3.op_class::SimdMisc                      0      0.00%     79.01% # Class of executed instruction
system.cpu3.op_class::SimdMult                      0      0.00%     79.01% # Class of executed instruction
system.cpu3.op_class::SimdMultAcc                   0      0.00%     79.01% # Class of executed instruction
system.cpu3.op_class::SimdShift                     0      0.00%     79.01% # Class of executed instruction
system.cpu3.op_class::SimdShiftAcc                  0      0.00%     79.01% # Class of executed instruction
system.cpu3.op_class::SimdSqrt                      0      0.00%     79.01% # Class of executed instruction
system.cpu3.op_class::SimdFloatAdd                  0      0.00%     79.01% # Class of executed instruction
system.cpu3.op_class::SimdFloatAlu                  0      0.00%     79.01% # Class of executed instruction
system.cpu3.op_class::SimdFloatCmp                  0      0.00%     79.01% # Class of executed instruction
system.cpu3.op_class::SimdFloatCvt                  0      0.00%     79.01% # Class of executed instruction
system.cpu3.op_class::SimdFloatDiv                  0      0.00%     79.01% # Class of executed instruction
system.cpu3.op_class::SimdFloatMisc                 0      0.00%     79.01% # Class of executed instruction
system.cpu3.op_class::SimdFloatMult                 0      0.00%     79.01% # Class of executed instruction
system.cpu3.op_class::SimdFloatMultAcc              0      0.00%     79.01% # Class of executed instruction
system.cpu3.op_class::SimdFloatSqrt                 0      0.00%     79.01% # Class of executed instruction
system.cpu3.op_class::MemRead                73964430     16.68%     95.69% # Class of executed instruction
system.cpu3.op_class::MemWrite               19092713      4.31%    100.00% # Class of executed instruction
system.cpu3.op_class::IprAccess                     0      0.00%    100.00% # Class of executed instruction
system.cpu3.op_class::InstPrefetch                  0      0.00%    100.00% # Class of executed instruction
system.cpu3.op_class::total                 443328916                       # Class of executed instruction
system.iobus.trans_dist::ReadReq                  559                       # Transaction distribution
system.iobus.trans_dist::ReadResp                 559                       # Transaction distribution
system.iobus.trans_dist::WriteReq                1838                       # Transaction distribution
system.iobus.trans_dist::WriteResp               1838                       # Transaction distribution
system.iobus.trans_dist::MessageReq                78                       # Transaction distribution
system.iobus.trans_dist::MessageResp               78                       # Transaction distribution
system.iobus.pkt_count_system.pc.south_bridge.io_apic.int_master::system.ruby.l1_cntrl0.sequencer.pio-slave-port           32                       # Packet count per connected master and slave (bytes)
system.iobus.pkt_count_system.pc.south_bridge.io_apic.int_master::system.ruby.l1_cntrl1.sequencer.pio-slave-port           32                       # Packet count per connected master and slave (bytes)
system.iobus.pkt_count_system.pc.south_bridge.io_apic.int_master::system.ruby.l1_cntrl2.sequencer.pio-slave-port           34                       # Packet count per connected master and slave (bytes)
system.iobus.pkt_count_system.pc.south_bridge.io_apic.int_master::system.ruby.l1_cntrl3.sequencer.pio-slave-port           32                       # Packet count per connected master and slave (bytes)
system.iobus.pkt_count_system.pc.south_bridge.io_apic.int_master::total          130                       # Packet count per connected master and slave (bytes)
system.iobus.pkt_count_system.ruby.l1_cntrl0.sequencer.mem-master-port::system.pc.south_bridge.ide.pio          622                       # Packet count per connected master and slave (bytes)
system.iobus.pkt_count_system.ruby.l1_cntrl0.sequencer.mem-master-port::system.pc.south_bridge.io_apic.pio            8                       # Packet count per connected master and slave (bytes)
system.iobus.pkt_count_system.ruby.l1_cntrl0.sequencer.mem-master-port::system.pc.com_1.pio            2                       # Packet count per connected master and slave (bytes)
system.iobus.pkt_count_system.ruby.l1_cntrl0.sequencer.mem-master-port::system.ruby.l1_cntrl0.sequencer.pio-slave-port          464                       # Packet count per connected master and slave (bytes)
system.iobus.pkt_count_system.ruby.l1_cntrl0.sequencer.mem-master-port::system.ruby.l1_cntrl1.sequencer.pio-slave-port            4                       # Packet count per connected master and slave (bytes)
system.iobus.pkt_count_system.ruby.l1_cntrl0.sequencer.mem-master-port::system.ruby.l1_cntrl3.sequencer.pio-slave-port            2                       # Packet count per connected master and slave (bytes)
system.iobus.pkt_count_system.ruby.l1_cntrl0.sequencer.mem-master-port::total         1102                       # Packet count per connected master and slave (bytes)
system.iobus.pkt_count_system.ruby.l1_cntrl1.sequencer.mem-master-port::system.pc.south_bridge.ide.pio          882                       # Packet count per connected master and slave (bytes)
system.iobus.pkt_count_system.ruby.l1_cntrl1.sequencer.mem-master-port::system.pc.south_bridge.io_apic.pio            6                       # Packet count per connected master and slave (bytes)
system.iobus.pkt_count_system.ruby.l1_cntrl1.sequencer.mem-master-port::system.pc.com_1.pio          176                       # Packet count per connected master and slave (bytes)
system.iobus.pkt_count_system.ruby.l1_cntrl1.sequencer.mem-master-port::system.ruby.l1_cntrl0.sequencer.pio-slave-port            2                       # Packet count per connected master and slave (bytes)
system.iobus.pkt_count_system.ruby.l1_cntrl1.sequencer.mem-master-port::system.ruby.l1_cntrl1.sequencer.pio-slave-port          472                       # Packet count per connected master and slave (bytes)
system.iobus.pkt_count_system.ruby.l1_cntrl1.sequencer.mem-master-port::system.ruby.l1_cntrl2.sequencer.pio-slave-port            6                       # Packet count per connected master and slave (bytes)
system.iobus.pkt_count_system.ruby.l1_cntrl1.sequencer.mem-master-port::total         1544                       # Packet count per connected master and slave (bytes)
system.iobus.pkt_count_system.ruby.l1_cntrl2.sequencer.mem-master-port::system.pc.south_bridge.ide.pio          588                       # Packet count per connected master and slave (bytes)
system.iobus.pkt_count_system.ruby.l1_cntrl2.sequencer.mem-master-port::system.pc.south_bridge.io_apic.pio           16                       # Packet count per connected master and slave (bytes)
system.iobus.pkt_count_system.ruby.l1_cntrl2.sequencer.mem-master-port::system.ruby.l1_cntrl0.sequencer.pio-slave-port            2                       # Packet count per connected master and slave (bytes)
system.iobus.pkt_count_system.ruby.l1_cntrl2.sequencer.mem-master-port::system.ruby.l1_cntrl2.sequencer.pio-slave-port          466                       # Packet count per connected master and slave (bytes)
system.iobus.pkt_count_system.ruby.l1_cntrl2.sequencer.mem-master-port::system.ruby.l1_cntrl3.sequencer.pio-slave-port            2                       # Packet count per connected master and slave (bytes)
system.iobus.pkt_count_system.ruby.l1_cntrl2.sequencer.mem-master-port::total         1074                       # Packet count per connected master and slave (bytes)
system.iobus.pkt_count_system.ruby.l1_cntrl3.sequencer.mem-master-port::system.pc.south_bridge.ide.pio          622                       # Packet count per connected master and slave (bytes)
system.iobus.pkt_count_system.ruby.l1_cntrl3.sequencer.mem-master-port::system.pc.south_bridge.io_apic.pio            8                       # Packet count per connected master and slave (bytes)
system.iobus.pkt_count_system.ruby.l1_cntrl3.sequencer.mem-master-port::system.ruby.l1_cntrl0.sequencer.pio-slave-port            2                       # Packet count per connected master and slave (bytes)
system.iobus.pkt_count_system.ruby.l1_cntrl3.sequencer.mem-master-port::system.ruby.l1_cntrl1.sequencer.pio-slave-port            2                       # Packet count per connected master and slave (bytes)
system.iobus.pkt_count_system.ruby.l1_cntrl3.sequencer.mem-master-port::system.ruby.l1_cntrl2.sequencer.pio-slave-port            4                       # Packet count per connected master and slave (bytes)
system.iobus.pkt_count_system.ruby.l1_cntrl3.sequencer.mem-master-port::system.ruby.l1_cntrl3.sequencer.pio-slave-port          462                       # Packet count per connected master and slave (bytes)
system.iobus.pkt_count_system.ruby.l1_cntrl3.sequencer.mem-master-port::total         1100                       # Packet count per connected master and slave (bytes)
system.iobus.pkt_count::total                    4950                       # Packet count per connected master and slave (bytes)
system.iobus.pkt_size_system.pc.south_bridge.io_apic.int_master::system.ruby.l1_cntrl0.sequencer.pio-slave-port           64                       # Cumulative packet size per connected master and slave (bytes)
system.iobus.pkt_size_system.pc.south_bridge.io_apic.int_master::system.ruby.l1_cntrl1.sequencer.pio-slave-port           64                       # Cumulative packet size per connected master and slave (bytes)
system.iobus.pkt_size_system.pc.south_bridge.io_apic.int_master::system.ruby.l1_cntrl2.sequencer.pio-slave-port           68                       # Cumulative packet size per connected master and slave (bytes)
system.iobus.pkt_size_system.pc.south_bridge.io_apic.int_master::system.ruby.l1_cntrl3.sequencer.pio-slave-port           64                       # Cumulative packet size per connected master and slave (bytes)
system.iobus.pkt_size_system.pc.south_bridge.io_apic.int_master::total          260                       # Cumulative packet size per connected master and slave (bytes)
system.iobus.pkt_size_system.ruby.l1_cntrl0.sequencer.mem-master-port::system.pc.south_bridge.ide.pio          350                       # Cumulative packet size per connected master and slave (bytes)
system.iobus.pkt_size_system.ruby.l1_cntrl0.sequencer.mem-master-port::system.pc.south_bridge.io_apic.pio           16                       # Cumulative packet size per connected master and slave (bytes)
system.iobus.pkt_size_system.ruby.l1_cntrl0.sequencer.mem-master-port::system.pc.com_1.pio            1                       # Cumulative packet size per connected master and slave (bytes)
system.iobus.pkt_size_system.ruby.l1_cntrl0.sequencer.mem-master-port::system.ruby.l1_cntrl0.sequencer.pio-slave-port          928                       # Cumulative packet size per connected master and slave (bytes)
system.iobus.pkt_size_system.ruby.l1_cntrl0.sequencer.mem-master-port::system.ruby.l1_cntrl1.sequencer.pio-slave-port            8                       # Cumulative packet size per connected master and slave (bytes)
system.iobus.pkt_size_system.ruby.l1_cntrl0.sequencer.mem-master-port::system.ruby.l1_cntrl3.sequencer.pio-slave-port            4                       # Cumulative packet size per connected master and slave (bytes)
system.iobus.pkt_size_system.ruby.l1_cntrl0.sequencer.mem-master-port::total         1307                       # Cumulative packet size per connected master and slave (bytes)
system.iobus.pkt_size_system.ruby.l1_cntrl1.sequencer.mem-master-port::system.pc.south_bridge.ide.pio          504                       # Cumulative packet size per connected master and slave (bytes)
system.iobus.pkt_size_system.ruby.l1_cntrl1.sequencer.mem-master-port::system.pc.south_bridge.io_apic.pio           12                       # Cumulative packet size per connected master and slave (bytes)
system.iobus.pkt_size_system.ruby.l1_cntrl1.sequencer.mem-master-port::system.pc.com_1.pio           88                       # Cumulative packet size per connected master and slave (bytes)
system.iobus.pkt_size_system.ruby.l1_cntrl1.sequencer.mem-master-port::system.ruby.l1_cntrl0.sequencer.pio-slave-port            4                       # Cumulative packet size per connected master and slave (bytes)
system.iobus.pkt_size_system.ruby.l1_cntrl1.sequencer.mem-master-port::system.ruby.l1_cntrl1.sequencer.pio-slave-port          944                       # Cumulative packet size per connected master and slave (bytes)
system.iobus.pkt_size_system.ruby.l1_cntrl1.sequencer.mem-master-port::system.ruby.l1_cntrl2.sequencer.pio-slave-port           12                       # Cumulative packet size per connected master and slave (bytes)
system.iobus.pkt_size_system.ruby.l1_cntrl1.sequencer.mem-master-port::total         1564                       # Cumulative packet size per connected master and slave (bytes)
system.iobus.pkt_size_system.ruby.l1_cntrl2.sequencer.mem-master-port::system.pc.south_bridge.ide.pio          330                       # Cumulative packet size per connected master and slave (bytes)
system.iobus.pkt_size_system.ruby.l1_cntrl2.sequencer.mem-master-port::system.pc.south_bridge.io_apic.pio           32                       # Cumulative packet size per connected master and slave (bytes)
system.iobus.pkt_size_system.ruby.l1_cntrl2.sequencer.mem-master-port::system.ruby.l1_cntrl0.sequencer.pio-slave-port            4                       # Cumulative packet size per connected master and slave (bytes)
system.iobus.pkt_size_system.ruby.l1_cntrl2.sequencer.mem-master-port::system.ruby.l1_cntrl2.sequencer.pio-slave-port          932                       # Cumulative packet size per connected master and slave (bytes)
system.iobus.pkt_size_system.ruby.l1_cntrl2.sequencer.mem-master-port::system.ruby.l1_cntrl3.sequencer.pio-slave-port            4                       # Cumulative packet size per connected master and slave (bytes)
system.iobus.pkt_size_system.ruby.l1_cntrl2.sequencer.mem-master-port::total         1302                       # Cumulative packet size per connected master and slave (bytes)
system.iobus.pkt_size_system.ruby.l1_cntrl3.sequencer.mem-master-port::system.pc.south_bridge.ide.pio          350                       # Cumulative packet size per connected master and slave (bytes)
system.iobus.pkt_size_system.ruby.l1_cntrl3.sequencer.mem-master-port::system.pc.south_bridge.io_apic.pio           16                       # Cumulative packet size per connected master and slave (bytes)
system.iobus.pkt_size_system.ruby.l1_cntrl3.sequencer.mem-master-port::system.ruby.l1_cntrl0.sequencer.pio-slave-port            4                       # Cumulative packet size per connected master and slave (bytes)
system.iobus.pkt_size_system.ruby.l1_cntrl3.sequencer.mem-master-port::system.ruby.l1_cntrl1.sequencer.pio-slave-port            4                       # Cumulative packet size per connected master and slave (bytes)
system.iobus.pkt_size_system.ruby.l1_cntrl3.sequencer.mem-master-port::system.ruby.l1_cntrl2.sequencer.pio-slave-port            8                       # Cumulative packet size per connected master and slave (bytes)
system.iobus.pkt_size_system.ruby.l1_cntrl3.sequencer.mem-master-port::system.ruby.l1_cntrl3.sequencer.pio-slave-port          924                       # Cumulative packet size per connected master and slave (bytes)
system.iobus.pkt_size_system.ruby.l1_cntrl3.sequencer.mem-master-port::total         1306                       # Cumulative packet size per connected master and slave (bytes)
system.iobus.pkt_size::total                     5739                       # Cumulative packet size per connected master and slave (bytes)
system.iobus.reqLayer2.occupancy              2346500                       # Layer occupancy (ticks)
system.iobus.reqLayer2.utilization                0.0                       # Layer utilization (%)
system.iobus.reqLayer8.occupancy                32496                       # Layer occupancy (ticks)
system.iobus.reqLayer8.utilization                0.0                       # Layer utilization (%)
system.iobus.reqLayer12.occupancy              113500                       # Layer occupancy (ticks)
system.iobus.reqLayer12.utilization               0.0                       # Layer utilization (%)
system.iobus.reqLayer17.occupancy              559984                       # Layer occupancy (ticks)
system.iobus.reqLayer17.utilization               0.0                       # Layer utilization (%)
system.iobus.reqLayer18.occupancy              573484                       # Layer occupancy (ticks)
system.iobus.reqLayer18.utilization               0.0                       # Layer utilization (%)
system.iobus.reqLayer19.occupancy              581983                       # Layer occupancy (ticks)
system.iobus.reqLayer19.utilization               0.0                       # Layer utilization (%)
system.iobus.reqLayer20.occupancy              675268                       # Layer occupancy (ticks)
system.iobus.reqLayer20.utilization               0.0                       # Layer utilization (%)
system.iobus.respLayer0.occupancy              111441                       # Layer occupancy (ticks)
system.iobus.respLayer0.utilization               0.0                       # Layer utilization (%)
system.iobus.respLayer2.occupancy              784000                       # Layer occupancy (ticks)
system.iobus.respLayer2.utilization               0.0                       # Layer utilization (%)
system.iobus.respLayer4.occupancy             1101500                       # Layer occupancy (ticks)
system.iobus.respLayer4.utilization               0.0                       # Layer utilization (%)
system.iobus.respLayer6.occupancy              767500                       # Layer occupancy (ticks)
system.iobus.respLayer6.utilization               0.0                       # Layer utilization (%)
system.iobus.respLayer8.occupancy              783000                       # Layer occupancy (ticks)
system.iobus.respLayer8.utilization               0.0                       # Layer utilization (%)
system.pc.south_bridge.ide.disks.dma_read_full_pages          886                       # Number of full page size DMA reads (not PRD).
system.pc.south_bridge.ide.disks.dma_read_bytes      3629056                       # Number of bytes transfered via DMA reads (not PRD).
system.pc.south_bridge.ide.disks.dma_read_txs          886                       # Number of DMA read transactions (not PRD).
system.pc.south_bridge.ide.disks.dma_write_full_pages           37                       # Number of full page size DMA writes.
system.pc.south_bridge.ide.disks.dma_write_bytes       151552                       # Number of bytes transfered via DMA writes.
system.pc.south_bridge.ide.disks.dma_write_txs           37                       # Number of DMA write transactions.
system.ruby.clk_domain.clock                      500                       # Clock period in ticks
[...]
system.ruby.DMA_Controller.READY.ReadRequest |       57222    100.00%    100.00% |           0      0.00%    100.00%
system.ruby.DMA_Controller.READY.ReadRequest::total        57222                      
system.ruby.DMA_Controller.READY.WriteRequest |        2496    100.00%    100.00% |           0      0.00%    100.00%
system.ruby.DMA_Controller.READY.WriteRequest::total         2496                      
system.ruby.DMA_Controller.BUSY_RD.Data  |       57222    100.00%    100.00% |           0      0.00%    100.00%
system.ruby.DMA_Controller.BUSY_RD.Data::total        57222                      
system.ruby.DMA_Controller.BUSY_WR.Ack   |        2496    100.00%    100.00% |           0      0.00%    100.00%
system.ruby.DMA_Controller.BUSY_WR.Ack::total         2496                      
system.ruby.L1Cache_Controller.Load      |      962193      0.75%      0.75% |    37576897     29.48%     30.24% |      474317      0.37%     30.61% |    88434871     69.39%    100.00%
system.ruby.L1Cache_Controller.Load::total    127448278                      
system.ruby.L1Cache_Controller.Ifetch    |     5375327      1.05%      1.05% |   138075758     26.95%     27.99% |     2272591      0.44%     28.44% |   366693268     71.56%    100.00%
system.ruby.L1Cache_Controller.Ifetch::total    512416944                      
system.ruby.L1Cache_Controller.Store     |      822674      1.95%      1.95% |    16260097     38.54%     40.49% |      345021      0.82%     41.31% |    24764983     58.69%    100.00%
system.ruby.L1Cache_Controller.Store::total     42192775                      
system.ruby.L1Cache_Controller.Inv       |       69040     29.21%     29.21% |       53387     22.59%     51.79% |       57029     24.13%     75.92% |       56925     24.08%    100.00%
system.ruby.L1Cache_Controller.Inv::total       236381                      
system.ruby.L1Cache_Controller.L1_Replacement |       88808      0.67%      0.67% |     5750968     43.37%     44.04% |       41473      0.31%     44.35% |     7379556     55.65%    100.00%
system.ruby.L1Cache_Controller.L1_Replacement::total     13260805                      
system.ruby.L1Cache_Controller.Fwd_GETX  |        1298     33.85%     33.85% |         872     22.74%     56.60% |         940     24.52%     81.12% |         724     18.88%    100.00%
system.ruby.L1Cache_Controller.Fwd_GETX::total         3834                      
system.ruby.L1Cache_Controller.Fwd_GETS  |        6005     31.90%     31.90% |        5486     29.14%     61.04% |        5459     29.00%     90.04% |        1874      9.96%    100.00%
system.ruby.L1Cache_Controller.Fwd_GETS::total        18824                      
system.ruby.L1Cache_Controller.Data      |         251     19.19%     19.19% |         236     18.04%     37.23% |         372     28.44%     65.67% |         449     34.33%    100.00%
system.ruby.L1Cache_Controller.Data::total         1308                      
system.ruby.L1Cache_Controller.Data_Exclusive |       34145      0.36%      0.36% |     4356900     46.49%     46.86% |       16924      0.18%     47.04% |     4963181     52.96%    100.00%
system.ruby.L1Cache_Controller.Data_Exclusive::total      9371150                      
system.ruby.L1Cache_Controller.DataS_fromL1 |        5747     30.53%     30.53% |        3495     18.57%     49.10% |        4374     23.24%     72.33% |        5208     27.67%    100.00%
system.ruby.L1Cache_Controller.DataS_fromL1::total        18824                      
system.ruby.L1Cache_Controller.Data_all_Acks |       99106      2.45%      2.45% |     1426724     35.30%     37.76% |       63968      1.58%     39.34% |     2451525     60.66%    100.00%
system.ruby.L1Cache_Controller.Data_all_Acks::total      4041323                      
system.ruby.L1Cache_Controller.Ack       |        8008     46.41%     46.41% |        3025     17.53%     63.94% |        2324     13.47%     77.40% |        3899     22.60%    100.00%
system.ruby.L1Cache_Controller.Ack::total        17256                      
system.ruby.L1Cache_Controller.Ack_all   |        4210     36.19%     36.19% |        2364     20.32%     56.52% |        1928     16.57%     73.09% |        3130     26.91%    100.00%
system.ruby.L1Cache_Controller.Ack_all::total        11632                      
system.ruby.L1Cache_Controller.WB_Ack    |       36481      0.28%      0.28% |     5686341     43.69%     43.97% |       10717      0.08%     44.05% |     7282147     55.95%    100.00%
system.ruby.L1Cache_Controller.WB_Ack::total     13015686                      
system.ruby.L1Cache_Controller.NP.Load   |       32972      0.35%      0.35% |     4362261     46.36%     46.71% |       13150      0.14%     46.85% |     5001238     53.15%    100.00%
system.ruby.L1Cache_Controller.NP.Load::total      9409621                      
system.ruby.L1Cache_Controller.NP.Ifetch |       41102     24.52%     24.52% |       48791     29.11%     53.63% |       22533     13.44%     67.08% |       55186     32.92%    100.00%
system.ruby.L1Cache_Controller.NP.Ifetch::total       167612                      
system.ruby.L1Cache_Controller.NP.Store  |       14734      0.40%      0.40% |     1340026     36.37%     36.77% |        5790      0.16%     36.93% |     2323666     63.07%    100.00%
system.ruby.L1Cache_Controller.NP.Store::total      3684216                      
system.ruby.L1Cache_Controller.NP.Inv    |       10610     26.99%     26.99% |       10660     27.12%     54.11% |        6664     16.95%     71.06% |       11375     28.94%    100.00%
system.ruby.L1Cache_Controller.NP.Inv::total        39309                      
system.ruby.L1Cache_Controller.I.Load    |       12088     31.03%     31.03% |        8395     21.55%     52.57% |       12629     32.42%     84.99% |        5848     15.01%    100.00%
system.ruby.L1Cache_Controller.I.Load::total        38960                      
system.ruby.L1Cache_Controller.I.Ifetch  |       29807     27.51%     27.51% |       23272     21.48%     48.99% |       24073     22.22%     71.21% |       31196     28.79%    100.00%
system.ruby.L1Cache_Controller.I.Ifetch::total       108348                      
system.ruby.L1Cache_Controller.I.Store   |        8546     35.84%     35.84% |        4610     19.33%     55.17% |        7463     31.30%     86.46% |        3228     13.54%    100.00%
system.ruby.L1Cache_Controller.I.Store::total        23847                      
system.ruby.L1Cache_Controller.I.L1_Replacement |        9187     31.45%     31.45% |        7605     26.04%     57.49% |        6725     23.03%     80.52% |        5690     19.48%    100.00%
system.ruby.L1Cache_Controller.I.L1_Replacement::total        29207                      
system.ruby.L1Cache_Controller.S.Load    |      118539      7.95%      7.95% |      329822     22.11%     30.05% |       77935      5.22%     35.28% |      965603     64.72%    100.00%
system.ruby.L1Cache_Controller.S.Load::total      1491899                      
system.ruby.L1Cache_Controller.S.Ifetch  |     5304418      1.04%      1.04% |   138003695     26.95%     27.98% |     2225985      0.43%     28.42% |   366606886     71.58%    100.00%
system.ruby.L1Cache_Controller.S.Ifetch::total    512140984                      
system.ruby.L1Cache_Controller.S.Store   |        3959     38.34%     38.34% |        2128     20.61%     58.95% |        1556     15.07%     74.02% |        2682     25.98%    100.00%
system.ruby.L1Cache_Controller.S.Store::total        10325                      
system.ruby.L1Cache_Controller.S.Inv     |       40759     27.90%     27.90% |       32331     22.13%     50.03% |       35170     24.07%     74.10% |       37833     25.90%    100.00%
system.ruby.L1Cache_Controller.S.Inv::total       146093                      
system.ruby.L1Cache_Controller.S.L1_Replacement |       43140     19.98%     19.98% |       57022     26.41%     46.39% |       24031     11.13%     57.52% |       91719     42.48%    100.00%
system.ruby.L1Cache_Controller.S.L1_Replacement::total       215912                      
system.ruby.L1Cache_Controller.E.Load    |      156122      0.17%      0.17% |    22452599     25.16%     25.34% |       81298      0.09%     25.43% |    66543876     74.57%    100.00%
system.ruby.L1Cache_Controller.E.Load::total     89233895                      
system.ruby.L1Cache_Controller.E.Store   |       17184      1.48%      1.48% |      988548     85.14%     86.62% |        3603      0.31%     86.93% |      151724     13.07%    100.00%
system.ruby.L1Cache_Controller.E.Store::total      1161059                      
system.ruby.L1Cache_Controller.E.Inv     |        5889     32.86%     32.86% |        3983     22.23%     55.09% |        5074     28.31%     83.40% |        2974     16.60%    100.00%
system.ruby.L1Cache_Controller.E.Inv::total        17920                      
system.ruby.L1Cache_Controller.E.L1_Replacement |        8029      0.10%      0.10% |     3360441     41.08%     41.18% |        4815      0.06%     41.24% |     4807142     58.76%    100.00%
system.ruby.L1Cache_Controller.E.L1_Replacement::total      8180427                      
system.ruby.L1Cache_Controller.E.Fwd_GETX |         706     44.68%     44.68% |         207     13.10%     57.78% |         235     14.87%     72.66% |         432     27.34%    100.00%
system.ruby.L1Cache_Controller.E.Fwd_GETX::total         1580                      
system.ruby.L1Cache_Controller.E.Fwd_GETS |        2175     22.01%     22.01% |        3242     32.80%     54.81% |        3547     35.89%     90.69% |         920      9.31%    100.00%
system.ruby.L1Cache_Controller.E.Fwd_GETS::total         9884                      
system.ruby.L1Cache_Controller.M.Load    |      642472      2.36%      2.36% |    10423820     38.22%     40.57% |      289305      1.06%     41.64% |    15918306     58.36%    100.00%
system.ruby.L1Cache_Controller.M.Load::total     27273903                      
system.ruby.L1Cache_Controller.M.Store   |      778251      2.09%      2.09% |    13924785     37.32%     39.40% |      326609      0.88%     40.28% |    22283683     59.72%    100.00%
system.ruby.L1Cache_Controller.M.Store::total     37313328                      
system.ruby.L1Cache_Controller.M.Inv     |       11781     35.64%     35.64% |        6413     19.40%     55.04% |       10121     30.62%     85.66% |        4742     14.34%    100.00%
system.ruby.L1Cache_Controller.M.Inv::total        33057                      
system.ruby.L1Cache_Controller.M.L1_Replacement |       28452      0.59%      0.59% |     2325900     48.10%     48.69% |        5902      0.12%     48.81% |     2475005     51.19%    100.00%
system.ruby.L1Cache_Controller.M.L1_Replacement::total      4835259                      
system.ruby.L1Cache_Controller.M.Fwd_GETX |         592     26.26%     26.26% |         665     29.50%     55.77% |         705     31.28%     87.05% |         292     12.95%    100.00%
system.ruby.L1Cache_Controller.M.Fwd_GETX::total         2254                      
system.ruby.L1Cache_Controller.M.Fwd_GETS |        3830     42.84%     42.84% |        2244     25.10%     67.94% |        1912     21.39%     89.33% |         954     10.67%    100.00%
system.ruby.L1Cache_Controller.M.Fwd_GETS::total         8940                      
system.ruby.L1Cache_Controller.IS.Inv    |           1    100.00%    100.00% |           0      0.00%    100.00% |           0      0.00%    100.00% |           0      0.00%    100.00%
system.ruby.L1Cache_Controller.IS.Inv::total            1                      
system.ruby.L1Cache_Controller.IS.Data_Exclusive |       34145      0.36%      0.36% |     4356900     46.49%     46.86% |       16924      0.18%     47.04% |     4963181     52.96%    100.00%
system.ruby.L1Cache_Controller.IS.Data_Exclusive::total      9371150                      
system.ruby.L1Cache_Controller.IS.DataS_fromL1 |        5747     30.53%     30.53% |        3495     18.57%     49.10% |        4374     23.24%     72.33% |        5208     27.67%    100.00%
system.ruby.L1Cache_Controller.IS.DataS_fromL1::total        18824                      
system.ruby.L1Cache_Controller.IS.Data_all_Acks |       76076     22.74%     22.74% |       82324     24.61%     47.34% |       51087     15.27%     62.61% |      125079     37.39%    100.00%
system.ruby.L1Cache_Controller.IS.Data_all_Acks::total       334566                      
system.ruby.L1Cache_Controller.IM.Data   |         251     19.19%     19.19% |         236     18.04%     37.23% |         372     28.44%     65.67% |         449     34.33%    100.00%
system.ruby.L1Cache_Controller.IM.Data::total         1308                      
system.ruby.L1Cache_Controller.IM.Data_all_Acks |       23029      0.62%      0.62% |     1344400     36.27%     36.89% |       12881      0.35%     37.24% |     2326446     62.76%    100.00%
system.ruby.L1Cache_Controller.IM.Data_all_Acks::total      3706756                      
system.ruby.L1Cache_Controller.SM.Inv    |           0      0.00%      0.00% |           0      0.00%      0.00% |           0      0.00%      0.00% |           1    100.00%    100.00%
system.ruby.L1Cache_Controller.SM.Inv::total            1                      
system.ruby.L1Cache_Controller.SM.Ack    |        8008     46.41%     46.41% |        3025     17.53%     63.94% |        2324     13.47%     77.40% |        3899     22.60%    100.00%
system.ruby.L1Cache_Controller.SM.Ack::total        17256                      
system.ruby.L1Cache_Controller.SM.Ack_all |        4210     36.19%     36.19% |        2364     20.32%     56.52% |        1928     16.57%     73.09% |        3130     26.91%    100.00%
system.ruby.L1Cache_Controller.SM.Ack_all::total        11632                      
system.ruby.L1Cache_Controller.IS_I.Data_all_Acks |           1    100.00%    100.00% |           0      0.00%    100.00% |           0      0.00%    100.00% |           0      0.00%    100.00%
system.ruby.L1Cache_Controller.IS_I.Data_all_Acks::total            1                      
system.ruby.L1Cache_Controller.M_I.WB_Ack |       36481      0.28%      0.28% |     5686341     43.69%     43.97% |       10717      0.08%     44.05% |     7282147     55.95%    100.00%
system.ruby.L1Cache_Controller.M_I.WB_Ack::total     13015686                      
system.ruby.L2Cache_Controller.L1_GET_INSTR       275964      0.00%      0.00%
system.ruby.L2Cache_Controller.L1_GETS        9448634      0.00%      0.00%
system.ruby.L2Cache_Controller.L1_GETX        3708067      0.00%      0.00%
system.ruby.L2Cache_Controller.L1_UPGRADE        10325      0.00%      0.00%
system.ruby.L2Cache_Controller.L1_PUTX       13015686      0.00%      0.00%
system.ruby.L2Cache_Controller.L2_Replacement      4058689      0.00%      0.00%
system.ruby.L2Cache_Controller.L2_Replacement_clean      3362492      0.00%      0.00%
system.ruby.L2Cache_Controller.Mem_Data       7427791      0.00%      0.00%
system.ruby.L2Cache_Controller.Mem_Ack        7421471      0.00%      0.00%
system.ruby.L2Cache_Controller.WB_Data          41997      0.00%      0.00%
system.ruby.L2Cache_Controller.WB_Data_clean         9884      0.00%      0.00%
system.ruby.L2Cache_Controller.Ack              89183      0.00%      0.00%
system.ruby.L2Cache_Controller.Ack_all          95577      0.00%      0.00%
system.ruby.L2Cache_Controller.Unblock          18824      0.00%      0.00%
system.ruby.L2Cache_Controller.Exclusive_Unblock     13089538      0.00%      0.00%
system.ruby.L2Cache_Controller.MEM_Inv            580      0.00%      0.00%
system.ruby.L2Cache_Controller.NP.L1_GET_INSTR        72338      0.00%      0.00%
system.ruby.L2Cache_Controller.NP.L1_GETS      4216097      0.00%      0.00%
system.ruby.L2Cache_Controller.NP.L1_GETX      3139356      0.00%      0.00%
system.ruby.L2Cache_Controller.SS.L1_GET_INSTR       203603      0.00%      0.00%
system.ruby.L2Cache_Controller.SS.L1_GETS        58553      0.00%      0.00%
system.ruby.L2Cache_Controller.SS.L1_GETX         1308      0.00%      0.00%
system.ruby.L2Cache_Controller.SS.L1_UPGRADE        10324      0.00%      0.00%
system.ruby.L2Cache_Controller.SS.L2_Replacement         2118      0.00%      0.00%
system.ruby.L2Cache_Controller.SS.L2_Replacement_clean        75539      0.00%      0.00%
system.ruby.L2Cache_Controller.M.L1_GET_INSTR           17      0.00%      0.00%
system.ruby.L2Cache_Controller.M.L1_GETS      5155080      0.00%      0.00%
system.ruby.L2Cache_Controller.M.L1_GETX       563566      0.00%      0.00%
system.ruby.L2Cache_Controller.M.L2_Replacement      4053560      0.00%      0.00%
system.ruby.L2Cache_Controller.M.L2_Replacement_clean      3239130      0.00%      0.00%
system.ruby.L2Cache_Controller.M.MEM_Inv          147      0.00%      0.00%
system.ruby.L2Cache_Controller.MT.L1_GETS        18824      0.00%      0.00%
system.ruby.L2Cache_Controller.MT.L1_GETX         3834      0.00%      0.00%
system.ruby.L2Cache_Controller.MT.L1_PUTX     13015686      0.00%      0.00%
system.ruby.L2Cache_Controller.MT.L2_Replacement         3011      0.00%      0.00%
system.ruby.L2Cache_Controller.MT.L2_Replacement_clean        47823      0.00%      0.00%
system.ruby.L2Cache_Controller.MT.MEM_Inv          143      0.00%      0.00%
system.ruby.L2Cache_Controller.M_I.L1_GET_INSTR            3      0.00%      0.00%
system.ruby.L2Cache_Controller.M_I.L1_GETS            1      0.00%      0.00%
system.ruby.L2Cache_Controller.M_I.L1_GETX            2      0.00%      0.00%
system.ruby.L2Cache_Controller.M_I.Mem_Ack      7421471      0.00%      0.00%
system.ruby.L2Cache_Controller.M_I.MEM_Inv          147      0.00%      0.00%
system.ruby.L2Cache_Controller.MT_I.WB_Data         2471      0.00%      0.00%
system.ruby.L2Cache_Controller.MT_I.Ack_all          683      0.00%      0.00%
system.ruby.L2Cache_Controller.MT_I.MEM_Inv          143      0.00%      0.00%
system.ruby.L2Cache_Controller.MCT_I.WB_Data        30586      0.00%      0.00%
system.ruby.L2Cache_Controller.MCT_I.Ack_all        17237      0.00%      0.00%
system.ruby.L2Cache_Controller.I_I.L1_GET_INSTR            1      0.00%      0.00%
system.ruby.L2Cache_Controller.I_I.Ack          86710      0.00%      0.00%
system.ruby.L2Cache_Controller.I_I.Ack_all        75539      0.00%      0.00%
system.ruby.L2Cache_Controller.S_I.Ack           2473      0.00%      0.00%
system.ruby.L2Cache_Controller.S_I.Ack_all         2118      0.00%      0.00%
system.ruby.L2Cache_Controller.ISS.L1_GETS           27      0.00%      0.00%
system.ruby.L2Cache_Controller.ISS.Mem_Data      4216070      0.00%      0.00%
system.ruby.L2Cache_Controller.IS.L1_GET_INSTR            2      0.00%      0.00%
system.ruby.L2Cache_Controller.IS.Mem_Data        72365      0.00%      0.00%
system.ruby.L2Cache_Controller.IM.Mem_Data      3139356      0.00%      0.00%
system.ruby.L2Cache_Controller.SS_MB.L1_GETS           33      0.00%      0.00%
system.ruby.L2Cache_Controller.SS_MB.L1_UPGRADE            1      0.00%      0.00%
system.ruby.L2Cache_Controller.SS_MB.Exclusive_Unblock        11632      0.00%      0.00%
system.ruby.L2Cache_Controller.MT_MB.L1_GETS           14      0.00%      0.00%
system.ruby.L2Cache_Controller.MT_MB.L1_GETX            1      0.00%      0.00%
system.ruby.L2Cache_Controller.MT_MB.Exclusive_Unblock     13077906      0.00%      0.00%
system.ruby.L2Cache_Controller.MT_IIB.L1_GETS            5      0.00%      0.00%
system.ruby.L2Cache_Controller.MT_IIB.WB_Data         8910      0.00%      0.00%
system.ruby.L2Cache_Controller.MT_IIB.WB_Data_clean         9850      0.00%      0.00%
system.ruby.L2Cache_Controller.MT_IIB.Unblock           64      0.00%      0.00%
system.ruby.L2Cache_Controller.MT_IB.WB_Data           30      0.00%      0.00%
system.ruby.L2Cache_Controller.MT_IB.WB_Data_clean           34      0.00%      0.00%
system.ruby.L2Cache_Controller.MT_SB.Unblock        18760      0.00%      0.00%

---------- End Simulation Statistics   ----------
