
---------- Begin Simulation Statistics ----------
sim_seconds                                  2.967158                       # Number of seconds simulated
sim_ticks                                2967157909500                       # Number of ticks simulated
final_tick                               56117758724001                       # Number of ticks from beginning of simulation (restored from checkpoints and never reset)
sim_freq                                 1000000000000                       # Frequency of simulated ticks
host_inst_rate                                 125567                       # Simulator instruction rate (inst/s)
host_op_rate                                   210440                       # Simulator op (including micro ops) rate (op/s)
host_tick_rate                              242985317                       # Simulator tick rate (ticks/s)
host_mem_usage                                1881408                       # Number of bytes of host memory used
host_seconds                                 12211.26                       # Real time elapsed on the host
sim_insts                                  1533331405                       # Number of instructions simulated
sim_ops                                    2569743958                       # Number of ops (including micro ops) simulated
system.voltage_domain.voltage                       1                       # Voltage in Volts
system.clk_domain.clock                          1000                       # Clock period in ticks
system.mem_ctrls0.bytes_read::ruby.dir_cntrl0      5071616                       # Number of bytes read from this memory
system.mem_ctrls0.bytes_read::total           5071616                       # Number of bytes read from this memory
system.mem_ctrls0.bytes_written::ruby.dir_cntrl0       639296                       # Number of bytes written to this memory
system.mem_ctrls0.bytes_written::total         639296                       # Number of bytes written to this memory
system.mem_ctrls0.num_reads::ruby.dir_cntrl0        79244                       # Number of read requests responded to by this memory
system.mem_ctrls0.num_reads::total              79244                       # Number of read requests responded to by this memory
system.mem_ctrls0.num_writes::ruby.dir_cntrl0         9989                       # Number of write requests responded to by this memory
system.mem_ctrls0.num_writes::total              9989                       # Number of write requests responded to by this memory
system.mem_ctrls0.bw_read::ruby.dir_cntrl0      1709250                       # Total read bandwidth from this memory (bytes/s)
system.mem_ctrls0.bw_read::total              1709250                       # Total read bandwidth from this memory (bytes/s)
system.mem_ctrls0.bw_write::ruby.dir_cntrl0       215457                       # Write bandwidth from this memory (bytes/s)
system.mem_ctrls0.bw_write::total              215457                       # Write bandwidth from this memory (bytes/s)
system.mem_ctrls0.bw_total::ruby.dir_cntrl0      1924708                       # Total bandwidth to/from this memory (bytes/s)
system.mem_ctrls0.bw_total::total             1924708                       # Total bandwidth to/from this memory (bytes/s)
system.mem_ctrls0.readReqs                      79244                       # Number of read requests accepted
system.mem_ctrls0.writeReqs                      9989                       # Number of write requests accepted
system.mem_ctrls0.readBursts                    79244                       # Number of DRAM read bursts, including those serviced by the write queue
system.mem_ctrls0.writeBursts                    9989                       # Number of DRAM write bursts, including those merged in the write queue
system.mem_ctrls0.bytesReadDRAM               5028928                       # Total number of bytes read from DRAM
system.mem_ctrls0.bytesReadWrQ                  42688                       # Total number of bytes read from write queue
system.mem_ctrls0.bytesWritten                 635008                       # Total number of bytes written to DRAM
system.mem_ctrls0.bytesReadSys                5071616                       # Total read bytes from the system interface side
system.mem_ctrls0.bytesWrittenSys              639296                       # Total written bytes from the system interface side
system.mem_ctrls0.servicedByWrQ                   667                       # Number of DRAM read bursts serviced by the write queue
system.mem_ctrls0.mergedWrBursts                   75                       # Number of DRAM write bursts merged with an existing one
system.mem_ctrls0.neitherReadNorWriteReqs            0                       # Number of requests that are neither read nor write
system.mem_ctrls0.perBankRdBursts::0             8699                       # Per bank write bursts
system.mem_ctrls0.perBankRdBursts::1             7679                       # Per bank write bursts
system.mem_ctrls0.perBankRdBursts::2             7765                       # Per bank write bursts
system.mem_ctrls0.perBankRdBursts::3             7050                       # Per bank write bursts
system.mem_ctrls0.perBankRdBursts::4             3147                       # Per bank write bursts
system.mem_ctrls0.perBankRdBursts::5             1895                       # Per bank write bursts
system.mem_ctrls0.perBankRdBursts::6             1984                       # Per bank write bursts
system.mem_ctrls0.perBankRdBursts::7             2348                       # Per bank write bursts
system.mem_ctrls0.perBankRdBursts::8             2406                       # Per bank write bursts
system.mem_ctrls0.perBankRdBursts::9             2356                       # Per bank write bursts
system.mem_ctrls0.perBankRdBursts::10            1814                       # Per bank write bursts
system.mem_ctrls0.perBankRdBursts::11            2146                       # Per bank write bursts
system.mem_ctrls0.perBankRdBursts::12            6238                       # Per bank write bursts
system.mem_ctrls0.perBankRdBursts::13            7892                       # Per bank write bursts
system.mem_ctrls0.perBankRdBursts::14            7813                       # Per bank write bursts
system.mem_ctrls0.perBankRdBursts::15            7345                       # Per bank write bursts
system.mem_ctrls0.perBankWrBursts::0              838                       # Per bank write bursts
system.mem_ctrls0.perBankWrBursts::1              638                       # Per bank write bursts
system.mem_ctrls0.perBankWrBursts::2              652                       # Per bank write bursts
system.mem_ctrls0.perBankWrBursts::3              420                       # Per bank write bursts
system.mem_ctrls0.perBankWrBursts::4              522                       # Per bank write bursts
system.mem_ctrls0.perBankWrBursts::5              542                       # Per bank write bursts
system.mem_ctrls0.perBankWrBursts::6              421                       # Per bank write bursts
system.mem_ctrls0.perBankWrBursts::7              704                       # Per bank write bursts
system.mem_ctrls0.perBankWrBursts::8              854                       # Per bank write bursts
system.mem_ctrls0.perBankWrBursts::9              467                       # Per bank write bursts
system.mem_ctrls0.perBankWrBursts::10             367                       # Per bank write bursts
system.mem_ctrls0.perBankWrBursts::11             352                       # Per bank write bursts
system.mem_ctrls0.perBankWrBursts::12             777                       # Per bank write bursts
system.mem_ctrls0.perBankWrBursts::13             780                       # Per bank write bursts
system.mem_ctrls0.perBankWrBursts::14             839                       # Per bank write bursts
system.mem_ctrls0.perBankWrBursts::15             749                       # Per bank write bursts
system.mem_ctrls0.numRdRetry                        0                       # Number of times read queue was full causing retry
system.mem_ctrls0.numWrRetry                        0                       # Number of times write queue was full causing retry
system.mem_ctrls0.totGap                 2967157910000                       # Total gap between requests
system.mem_ctrls0.readPktSize::0                    0                       # Read request sizes (log2)
system.mem_ctrls0.readPktSize::1                    0                       # Read request sizes (log2)
system.mem_ctrls0.readPktSize::2                    0                       # Read request sizes (log2)
system.mem_ctrls0.readPktSize::3                    0                       # Read request sizes (log2)
system.mem_ctrls0.readPktSize::4                    0                       # Read request sizes (log2)
system.mem_ctrls0.readPktSize::5                    0                       # Read request sizes (log2)
system.mem_ctrls0.readPktSize::6                79244                       # Read request sizes (log2)
system.mem_ctrls0.writePktSize::0                   0                       # Write request sizes (log2)
system.mem_ctrls0.writePktSize::1                   0                       # Write request sizes (log2)
system.mem_ctrls0.writePktSize::2                   0                       # Write request sizes (log2)
system.mem_ctrls0.writePktSize::3                   0                       # Write request sizes (log2)
system.mem_ctrls0.writePktSize::4                   0                       # Write request sizes (log2)
system.mem_ctrls0.writePktSize::5                   0                       # Write request sizes (log2)
system.mem_ctrls0.writePktSize::6                9989                       # Write request sizes (log2)
system.mem_ctrls0.rdQLenPdf::0                  78073                       # What read queue length does an incoming req see
system.mem_ctrls0.rdQLenPdf::1                    503                       # What read queue length does an incoming req see
system.mem_ctrls0.rdQLenPdf::2                      1                       # What read queue length does an incoming req see
system.mem_ctrls0.rdQLenPdf::3                      0                       # What read queue length does an incoming req see
system.mem_ctrls0.rdQLenPdf::4                      0                       # What read queue length does an incoming req see
system.mem_ctrls0.rdQLenPdf::5                      0                       # What read queue length does an incoming req see
system.mem_ctrls0.rdQLenPdf::6                      0                       # What read queue length does an incoming req see
system.mem_ctrls0.rdQLenPdf::7                      0                       # What read queue length does an incoming req see
system.mem_ctrls0.rdQLenPdf::8                      0                       # What read queue length does an incoming req see
system.mem_ctrls0.rdQLenPdf::9                      0                       # What read queue length does an incoming req see
system.mem_ctrls0.rdQLenPdf::10                     0                       # What read queue length does an incoming req see
system.mem_ctrls0.rdQLenPdf::11                     0                       # What read queue length does an incoming req see
system.mem_ctrls0.rdQLenPdf::12                     0                       # What read queue length does an incoming req see
system.mem_ctrls0.rdQLenPdf::13                     0                       # What read queue length does an incoming req see
system.mem_ctrls0.rdQLenPdf::14                     0                       # What read queue length does an incoming req see
system.mem_ctrls0.rdQLenPdf::15                     0                       # What read queue length does an incoming req see
system.mem_ctrls0.rdQLenPdf::16                     0                       # What read queue length does an incoming req see
system.mem_ctrls0.rdQLenPdf::17                     0                       # What read queue length does an incoming req see
system.mem_ctrls0.rdQLenPdf::18                     0                       # What read queue length does an incoming req see
system.mem_ctrls0.rdQLenPdf::19                     0                       # What read queue length does an incoming req see
system.mem_ctrls0.rdQLenPdf::20                     0                       # What read queue length does an incoming req see
system.mem_ctrls0.rdQLenPdf::21                     0                       # What read queue length does an incoming req see
system.mem_ctrls0.rdQLenPdf::22                     0                       # What read queue length does an incoming req see
system.mem_ctrls0.rdQLenPdf::23                     0                       # What read queue length does an incoming req see
system.mem_ctrls0.rdQLenPdf::24                     0                       # What read queue length does an incoming req see
system.mem_ctrls0.rdQLenPdf::25                     0                       # What read queue length does an incoming req see
system.mem_ctrls0.rdQLenPdf::26                     0                       # What read queue length does an incoming req see
system.mem_ctrls0.rdQLenPdf::27                     0                       # What read queue length does an incoming req see
system.mem_ctrls0.rdQLenPdf::28                     0                       # What read queue length does an incoming req see
system.mem_ctrls0.rdQLenPdf::29                     0                       # What read queue length does an incoming req see
system.mem_ctrls0.rdQLenPdf::30                     0                       # What read queue length does an incoming req see
system.mem_ctrls0.rdQLenPdf::31                     0                       # What read queue length does an incoming req see
system.mem_ctrls0.wrQLenPdf::0                      0                       # What write queue length does an incoming req see
system.mem_ctrls0.wrQLenPdf::1                      0                       # What write queue length does an incoming req see
system.mem_ctrls0.wrQLenPdf::2                      0                       # What write queue length does an incoming req see
system.mem_ctrls0.wrQLenPdf::3                      0                       # What write queue length does an incoming req see
system.mem_ctrls0.wrQLenPdf::4                      0                       # What write queue length does an incoming req see
system.mem_ctrls0.wrQLenPdf::5                      0                       # What write queue length does an incoming req see
system.mem_ctrls0.wrQLenPdf::6                      0                       # What write queue length does an incoming req see
system.mem_ctrls0.wrQLenPdf::7                      0                       # What write queue length does an incoming req see
system.mem_ctrls0.wrQLenPdf::8                      0                       # What write queue length does an incoming req see
system.mem_ctrls0.wrQLenPdf::9                      0                       # What write queue length does an incoming req see
system.mem_ctrls0.wrQLenPdf::10                     0                       # What write queue length does an incoming req see
system.mem_ctrls0.wrQLenPdf::11                     0                       # What write queue length does an incoming req see
system.mem_ctrls0.wrQLenPdf::12                     0                       # What write queue length does an incoming req see
system.mem_ctrls0.wrQLenPdf::13                     0                       # What write queue length does an incoming req see
system.mem_ctrls0.wrQLenPdf::14                     0                       # What write queue length does an incoming req see
system.mem_ctrls0.wrQLenPdf::15                   146                       # What write queue length does an incoming req see
system.mem_ctrls0.wrQLenPdf::16                   153                       # What write queue length does an incoming req see
system.mem_ctrls0.wrQLenPdf::17                   592                       # What write queue length does an incoming req see
system.mem_ctrls0.wrQLenPdf::18                   605                       # What write queue length does an incoming req see
system.mem_ctrls0.wrQLenPdf::19                   620                       # What write queue length does an incoming req see
system.mem_ctrls0.wrQLenPdf::20                   600                       # What write queue length does an incoming req see
system.mem_ctrls0.wrQLenPdf::21                   616                       # What write queue length does an incoming req see
system.mem_ctrls0.wrQLenPdf::22                   615                       # What write queue length does an incoming req see
system.mem_ctrls0.wrQLenPdf::23                   595                       # What write queue length does an incoming req see
system.mem_ctrls0.wrQLenPdf::24                   598                       # What write queue length does an incoming req see
system.mem_ctrls0.wrQLenPdf::25                   601                       # What write queue length does an incoming req see
system.mem_ctrls0.wrQLenPdf::26                   594                       # What write queue length does an incoming req see
system.mem_ctrls0.wrQLenPdf::27                   595                       # What write queue length does an incoming req see
system.mem_ctrls0.wrQLenPdf::28                   596                       # What write queue length does an incoming req see
system.mem_ctrls0.wrQLenPdf::29                   598                       # What write queue length does an incoming req see
system.mem_ctrls0.wrQLenPdf::30                   594                       # What write queue length does an incoming req see
system.mem_ctrls0.wrQLenPdf::31                   594                       # What write queue length does an incoming req see
system.mem_ctrls0.wrQLenPdf::32                   593                       # What write queue length does an incoming req see
system.mem_ctrls0.wrQLenPdf::33                     2                       # What write queue length does an incoming req see
system.mem_ctrls0.wrQLenPdf::34                     2                       # What write queue length does an incoming req see
system.mem_ctrls0.wrQLenPdf::35                     2                       # What write queue length does an incoming req see
system.mem_ctrls0.wrQLenPdf::36                     1                       # What write queue length does an incoming req see
system.mem_ctrls0.wrQLenPdf::37                     1                       # What write queue length does an incoming req see
system.mem_ctrls0.wrQLenPdf::38                     1                       # What write queue length does an incoming req see
system.mem_ctrls0.wrQLenPdf::39                     0                       # What write queue length does an incoming req see
system.mem_ctrls0.wrQLenPdf::40                     0                       # What write queue length does an incoming req see
system.mem_ctrls0.wrQLenPdf::41                     0                       # What write queue length does an incoming req see
system.mem_ctrls0.wrQLenPdf::42                     0                       # What write queue length does an incoming req see
system.mem_ctrls0.wrQLenPdf::43                     0                       # What write queue length does an incoming req see
system.mem_ctrls0.wrQLenPdf::44                     0                       # What write queue length does an incoming req see
system.mem_ctrls0.wrQLenPdf::45                     0                       # What write queue length does an incoming req see
system.mem_ctrls0.wrQLenPdf::46                     0                       # What write queue length does an incoming req see
system.mem_ctrls0.wrQLenPdf::47                     0                       # What write queue length does an incoming req see
system.mem_ctrls0.wrQLenPdf::48                     0                       # What write queue length does an incoming req see
system.mem_ctrls0.wrQLenPdf::49                     0                       # What write queue length does an incoming req see
system.mem_ctrls0.wrQLenPdf::50                     0                       # What write queue length does an incoming req see
system.mem_ctrls0.wrQLenPdf::51                     0                       # What write queue length does an incoming req see
system.mem_ctrls0.wrQLenPdf::52                     0                       # What write queue length does an incoming req see
system.mem_ctrls0.wrQLenPdf::53                     0                       # What write queue length does an incoming req see
system.mem_ctrls0.wrQLenPdf::54                     0                       # What write queue length does an incoming req see
system.mem_ctrls0.wrQLenPdf::55                     0                       # What write queue length does an incoming req see
system.mem_ctrls0.wrQLenPdf::56                     0                       # What write queue length does an incoming req see
system.mem_ctrls0.wrQLenPdf::57                     0                       # What write queue length does an incoming req see
system.mem_ctrls0.wrQLenPdf::58                     0                       # What write queue length does an incoming req see
system.mem_ctrls0.wrQLenPdf::59                     0                       # What write queue length does an incoming req see
system.mem_ctrls0.wrQLenPdf::60                     0                       # What write queue length does an incoming req see
system.mem_ctrls0.wrQLenPdf::61                     0                       # What write queue length does an incoming req see
system.mem_ctrls0.wrQLenPdf::62                     0                       # What write queue length does an incoming req see
system.mem_ctrls0.wrQLenPdf::63                     0                       # What write queue length does an incoming req see
system.mem_ctrls0.bytesPerActivate::samples        26648                       # Bytes accessed per row activation
system.mem_ctrls0.bytesPerActivate::mean   212.548784                       # Bytes accessed per row activation
system.mem_ctrls0.bytesPerActivate::gmean   119.041157                       # Bytes accessed per row activation
system.mem_ctrls0.bytesPerActivate::stdev   295.778409                       # Bytes accessed per row activation
system.mem_ctrls0.bytesPerActivate::0-127        16042     60.20%     60.20% # Bytes accessed per row activation
system.mem_ctrls0.bytesPerActivate::128-255         5211     19.55%     79.75% # Bytes accessed per row activation
system.mem_ctrls0.bytesPerActivate::256-383         1341      5.03%     84.79% # Bytes accessed per row activation
system.mem_ctrls0.bytesPerActivate::384-511          574      2.15%     86.94% # Bytes accessed per row activation
system.mem_ctrls0.bytesPerActivate::512-639          275      1.03%     87.97% # Bytes accessed per row activation
system.mem_ctrls0.bytesPerActivate::640-767          308      1.16%     89.13% # Bytes accessed per row activation
system.mem_ctrls0.bytesPerActivate::768-895          192      0.72%     89.85% # Bytes accessed per row activation
system.mem_ctrls0.bytesPerActivate::896-1023          148      0.56%     90.40% # Bytes accessed per row activation
system.mem_ctrls0.bytesPerActivate::1024-1151         2557      9.60%    100.00% # Bytes accessed per row activation
system.mem_ctrls0.bytesPerActivate::total        26648                       # Bytes accessed per row activation
system.mem_ctrls0.rdPerTurnAround::samples          593                       # Reads before turning the bus around for writes
system.mem_ctrls0.rdPerTurnAround::mean    133.210793                       # Reads before turning the bus around for writes
system.mem_ctrls0.rdPerTurnAround::stdev  1019.406966                       # Reads before turning the bus around for writes
system.mem_ctrls0.rdPerTurnAround::0-1023          590     99.49%     99.49% # Reads before turning the bus around for writes
system.mem_ctrls0.rdPerTurnAround::2048-3071            1      0.17%     99.66% # Reads before turning the bus around for writes
system.mem_ctrls0.rdPerTurnAround::14336-15359            1      0.17%     99.83% # Reads before turning the bus around for writes
system.mem_ctrls0.rdPerTurnAround::19456-20479            1      0.17%    100.00% # Reads before turning the bus around for writes
system.mem_ctrls0.rdPerTurnAround::total          593                       # Reads before turning the bus around for writes
system.mem_ctrls0.wrPerTurnAround::samples          593                       # Writes before turning the bus around for reads
system.mem_ctrls0.wrPerTurnAround::mean     16.731872                       # Writes before turning the bus around for reads
system.mem_ctrls0.wrPerTurnAround::gmean    16.677171                       # Writes before turning the bus around for reads
system.mem_ctrls0.wrPerTurnAround::stdev     1.439294                       # Writes before turning the bus around for reads
system.mem_ctrls0.wrPerTurnAround::16             442     74.54%     74.54% # Writes before turning the bus around for reads
system.mem_ctrls0.wrPerTurnAround::17               4      0.67%     75.21% # Writes before turning the bus around for reads
system.mem_ctrls0.wrPerTurnAround::18              72     12.14%     87.35% # Writes before turning the bus around for reads
system.mem_ctrls0.wrPerTurnAround::19              37      6.24%     93.59% # Writes before turning the bus around for reads
system.mem_ctrls0.wrPerTurnAround::20              30      5.06%     98.65% # Writes before turning the bus around for reads
system.mem_ctrls0.wrPerTurnAround::21               5      0.84%     99.49% # Writes before turning the bus around for reads
system.mem_ctrls0.wrPerTurnAround::23               1      0.17%     99.66% # Writes before turning the bus around for reads
system.mem_ctrls0.wrPerTurnAround::27               1      0.17%     99.83% # Writes before turning the bus around for reads
system.mem_ctrls0.wrPerTurnAround::28               1      0.17%    100.00% # Writes before turning the bus around for reads
system.mem_ctrls0.wrPerTurnAround::total          593                       # Writes before turning the bus around for reads
system.mem_ctrls0.totQLat                   584595997                       # Total ticks spent queuing
system.mem_ctrls0.totMemAccLat             2057914747                       # Total ticks spent from burst creation until serviced by the DRAM
system.mem_ctrls0.totBusLat                 392885000                       # Total ticks spent in databus transfers
system.mem_ctrls0.avgQLat                     7439.79                       # Average queueing delay per DRAM burst
system.mem_ctrls0.avgBusLat                   5000.00                       # Average bus latency per DRAM burst
system.mem_ctrls0.avgMemAccLat               26189.79                       # Average memory access latency per DRAM burst
system.mem_ctrls0.avgRdBW                        1.69                       # Average DRAM read bandwidth in MiByte/s
system.mem_ctrls0.avgWrBW                        0.21                       # Average achieved write bandwidth in MiByte/s
system.mem_ctrls0.avgRdBWSys                     1.71                       # Average system read bandwidth in MiByte/s
system.mem_ctrls0.avgWrBWSys                     0.22                       # Average system write bandwidth in MiByte/s
system.mem_ctrls0.peakBW                     12800.00                       # Theoretical peak bandwidth in MiByte/s
system.mem_ctrls0.busUtil                        0.01                       # Data bus utilization in percentage
system.mem_ctrls0.busUtilRead                    0.01                       # Data bus utilization in percentage for reads
system.mem_ctrls0.busUtilWrite                   0.00                       # Data bus utilization in percentage for writes
system.mem_ctrls0.avgRdQLen                      1.00                       # Average read queue length when enqueuing
system.mem_ctrls0.avgWrQLen                     25.04                       # Average write queue length when enqueuing
system.mem_ctrls0.readRowHits                   57499                       # Number of row buffer hits during reads
system.mem_ctrls0.writeRowHits                   4352                       # Number of row buffer hits during writes
system.mem_ctrls0.readRowHitRate                73.18                       # Row buffer hit rate for reads
system.mem_ctrls0.writeRowHitRate               43.90                       # Row buffer hit rate for writes
system.mem_ctrls0.avgGap                  33251800.45                       # Average gap between requests
system.mem_ctrls0.pageHitRate                   69.90                       # Row buffer hit rate, read and write combined
system.mem_ctrls0_0.actEnergy               109990440                       # Energy for activate commands per rank (pJ)
system.mem_ctrls0_0.preEnergy                60014625                       # Energy for precharge commands per rank (pJ)
system.mem_ctrls0_0.readEnergy              341749200                       # Energy for read commands per rank (pJ)
system.mem_ctrls0_0.writeEnergy              30721680                       # Energy for write commands per rank (pJ)
system.mem_ctrls0_0.refreshEnergy        194056833360                       # Energy for refresh commands per rank (pJ)
system.mem_ctrls0_0.actBackEnergy         82908382995                       # Energy for active background per rank (pJ)
system.mem_ctrls0_0.preBackEnergy        1709924541000                       # Energy for precharge background per rank (pJ)
system.mem_ctrls0_0.totalEnergy          1987432233300                       # Total energy per rank (pJ)
system.mem_ctrls0_0.averagePower           668.924658                       # Core power per rank (mW)
system.mem_ctrls0_0.memoryStateTime::IDLE 2842530848500                       # Time in different power states
system.mem_ctrls0_0.memoryStateTime::REF  99080020000                       # Time in different power states
system.mem_ctrls0_0.memoryStateTime::PRE_PDN            0                       # Time in different power states
system.mem_ctrls0_0.memoryStateTime::ACT  25547294500                       # Time in different power states
system.mem_ctrls0_0.memoryStateTime::ACT_PDN            0                       # Time in different power states
system.mem_ctrls0_1.actEnergy               112296240                       # Energy for activate commands per rank (pJ)
system.mem_ctrls0_1.preEnergy                61272750                       # Energy for precharge commands per rank (pJ)
system.mem_ctrls0_1.readEnergy              336694800                       # Energy for read commands per rank (pJ)
system.mem_ctrls0_1.writeEnergy              33793200                       # Energy for write commands per rank (pJ)
system.mem_ctrls0_1.refreshEnergy        194056833360                       # Energy for refresh commands per rank (pJ)
system.mem_ctrls0_1.actBackEnergy         82473433380                       # Energy for active background per rank (pJ)
system.mem_ctrls0_1.preBackEnergy        1710306075750                       # Energy for precharge background per rank (pJ)
system.mem_ctrls0_1.totalEnergy          1987380399480                       # Total energy per rank (pJ)
system.mem_ctrls0_1.averagePower           668.907212                       # Core power per rank (mW)
system.mem_ctrls0_1.memoryStateTime::IDLE 2843712126750                       # Time in different power states
system.mem_ctrls0_1.memoryStateTime::REF  99080020000                       # Time in different power states
system.mem_ctrls0_1.memoryStateTime::PRE_PDN            0                       # Time in different power states
system.mem_ctrls0_1.memoryStateTime::ACT  24368644500                       # Time in different power states
system.mem_ctrls0_1.memoryStateTime::ACT_PDN            0                       # Time in different power states
system.mem_ctrls1.bytes_read::ruby.dir_cntrl1      4964544                       # Number of bytes read from this memory
system.mem_ctrls1.bytes_read::total           4964544                       # Number of bytes read from this memory
system.mem_ctrls1.bytes_written::ruby.dir_cntrl1       609088                       # Number of bytes written to this memory
system.mem_ctrls1.bytes_written::total         609088                       # Number of bytes written to this memory
system.mem_ctrls1.num_reads::ruby.dir_cntrl1        77571                       # Number of read requests responded to by this memory
system.mem_ctrls1.num_reads::total              77571                       # Number of read requests responded to by this memory
system.mem_ctrls1.num_writes::ruby.dir_cntrl1         9517                       # Number of write requests responded to by this memory
system.mem_ctrls1.num_writes::total              9517                       # Number of write requests responded to by this memory
system.mem_ctrls1.bw_read::ruby.dir_cntrl1      1673165                       # Total read bandwidth from this memory (bytes/s)
system.mem_ctrls1.bw_read::total              1673165                       # Total read bandwidth from this memory (bytes/s)
system.mem_ctrls1.bw_write::ruby.dir_cntrl1       205277                       # Write bandwidth from this memory (bytes/s)
system.mem_ctrls1.bw_write::total              205277                       # Write bandwidth from this memory (bytes/s)
system.mem_ctrls1.bw_total::ruby.dir_cntrl1      1878441                       # Total bandwidth to/from this memory (bytes/s)
system.mem_ctrls1.bw_total::total             1878441                       # Total bandwidth to/from this memory (bytes/s)
system.mem_ctrls1.readReqs                      77571                       # Number of read requests accepted
system.mem_ctrls1.writeReqs                      9517                       # Number of write requests accepted
system.mem_ctrls1.readBursts                    77571                       # Number of DRAM read bursts, including those serviced by the write queue
system.mem_ctrls1.writeBursts                    9517                       # Number of DRAM write bursts, including those merged in the write queue
system.mem_ctrls1.bytesReadDRAM               4934528                       # Total number of bytes read from DRAM
system.mem_ctrls1.bytesReadWrQ                  30016                       # Total number of bytes read from write queue
system.mem_ctrls1.bytesWritten                 606720                       # Total number of bytes written to DRAM
system.mem_ctrls1.bytesReadSys                4964544                       # Total read bytes from the system interface side
system.mem_ctrls1.bytesWrittenSys              609088                       # Total written bytes from the system interface side
system.mem_ctrls1.servicedByWrQ                   469                       # Number of DRAM read bursts serviced by the write queue
system.mem_ctrls1.mergedWrBursts                   44                       # Number of DRAM write bursts merged with an existing one
system.mem_ctrls1.neitherReadNorWriteReqs            0                       # Number of requests that are neither read nor write
system.mem_ctrls1.perBankRdBursts::0             8601                       # Per bank write bursts
system.mem_ctrls1.perBankRdBursts::1             7564                       # Per bank write bursts
system.mem_ctrls1.perBankRdBursts::2             7606                       # Per bank write bursts
system.mem_ctrls1.perBankRdBursts::3             6826                       # Per bank write bursts
system.mem_ctrls1.perBankRdBursts::4             3034                       # Per bank write bursts
system.mem_ctrls1.perBankRdBursts::5             1887                       # Per bank write bursts
system.mem_ctrls1.perBankRdBursts::6             1951                       # Per bank write bursts
system.mem_ctrls1.perBankRdBursts::7             2238                       # Per bank write bursts
system.mem_ctrls1.perBankRdBursts::8             2344                       # Per bank write bursts
system.mem_ctrls1.perBankRdBursts::9             2316                       # Per bank write bursts
system.mem_ctrls1.perBankRdBursts::10            1768                       # Per bank write bursts
system.mem_ctrls1.perBankRdBursts::11            2035                       # Per bank write bursts
system.mem_ctrls1.perBankRdBursts::12            6211                       # Per bank write bursts
system.mem_ctrls1.perBankRdBursts::13            7830                       # Per bank write bursts
system.mem_ctrls1.perBankRdBursts::14            7719                       # Per bank write bursts
system.mem_ctrls1.perBankRdBursts::15            7172                       # Per bank write bursts
system.mem_ctrls1.perBankWrBursts::0              798                       # Per bank write bursts
system.mem_ctrls1.perBankWrBursts::1              605                       # Per bank write bursts
system.mem_ctrls1.perBankWrBursts::2              572                       # Per bank write bursts
system.mem_ctrls1.perBankWrBursts::3              434                       # Per bank write bursts
system.mem_ctrls1.perBankWrBursts::4              485                       # Per bank write bursts
system.mem_ctrls1.perBankWrBursts::5              531                       # Per bank write bursts
system.mem_ctrls1.perBankWrBursts::6              415                       # Per bank write bursts
system.mem_ctrls1.perBankWrBursts::7              679                       # Per bank write bursts
system.mem_ctrls1.perBankWrBursts::8              828                       # Per bank write bursts
system.mem_ctrls1.perBankWrBursts::9              435                       # Per bank write bursts
system.mem_ctrls1.perBankWrBursts::10             362                       # Per bank write bursts
system.mem_ctrls1.perBankWrBursts::11             331                       # Per bank write bursts
system.mem_ctrls1.perBankWrBursts::12             742                       # Per bank write bursts
system.mem_ctrls1.perBankWrBursts::13             758                       # Per bank write bursts
system.mem_ctrls1.perBankWrBursts::14             787                       # Per bank write bursts
system.mem_ctrls1.perBankWrBursts::15             718                       # Per bank write bursts
system.mem_ctrls1.numRdRetry                        0                       # Number of times read queue was full causing retry
system.mem_ctrls1.numWrRetry                        0                       # Number of times write queue was full causing retry
system.mem_ctrls1.totGap                 2967157673500                       # Total gap between requests
system.mem_ctrls1.readPktSize::0                    0                       # Read request sizes (log2)
system.mem_ctrls1.readPktSize::1                    0                       # Read request sizes (log2)
system.mem_ctrls1.readPktSize::2                    0                       # Read request sizes (log2)
system.mem_ctrls1.readPktSize::3                    0                       # Read request sizes (log2)
system.mem_ctrls1.readPktSize::4                    0                       # Read request sizes (log2)
system.mem_ctrls1.readPktSize::5                    0                       # Read request sizes (log2)
system.mem_ctrls1.readPktSize::6                77571                       # Read request sizes (log2)
system.mem_ctrls1.writePktSize::0                   0                       # Write request sizes (log2)
system.mem_ctrls1.writePktSize::1                   0                       # Write request sizes (log2)
system.mem_ctrls1.writePktSize::2                   0                       # Write request sizes (log2)
system.mem_ctrls1.writePktSize::3                   0                       # Write request sizes (log2)
system.mem_ctrls1.writePktSize::4                   0                       # Write request sizes (log2)
system.mem_ctrls1.writePktSize::5                   0                       # Write request sizes (log2)
system.mem_ctrls1.writePktSize::6                9517                       # Write request sizes (log2)
system.mem_ctrls1.rdQLenPdf::0                  76621                       # What read queue length does an incoming req see
system.mem_ctrls1.rdQLenPdf::1                    481                       # What read queue length does an incoming req see
system.mem_ctrls1.rdQLenPdf::2                      0                       # What read queue length does an incoming req see
system.mem_ctrls1.rdQLenPdf::3                      0                       # What read queue length does an incoming req see
system.mem_ctrls1.rdQLenPdf::4                      0                       # What read queue length does an incoming req see
system.mem_ctrls1.rdQLenPdf::5                      0                       # What read queue length does an incoming req see
system.mem_ctrls1.rdQLenPdf::6                      0                       # What read queue length does an incoming req see
system.mem_ctrls1.rdQLenPdf::7                      0                       # What read queue length does an incoming req see
system.mem_ctrls1.rdQLenPdf::8                      0                       # What read queue length does an incoming req see
system.mem_ctrls1.rdQLenPdf::9                      0                       # What read queue length does an incoming req see
system.mem_ctrls1.rdQLenPdf::10                     0                       # What read queue length does an incoming req see
system.mem_ctrls1.rdQLenPdf::11                     0                       # What read queue length does an incoming req see
system.mem_ctrls1.rdQLenPdf::12                     0                       # What read queue length does an incoming req see
system.mem_ctrls1.rdQLenPdf::13                     0                       # What read queue length does an incoming req see
system.mem_ctrls1.rdQLenPdf::14                     0                       # What read queue length does an incoming req see
system.mem_ctrls1.rdQLenPdf::15                     0                       # What read queue length does an incoming req see
system.mem_ctrls1.rdQLenPdf::16                     0                       # What read queue length does an incoming req see
system.mem_ctrls1.rdQLenPdf::17                     0                       # What read queue length does an incoming req see
system.mem_ctrls1.rdQLenPdf::18                     0                       # What read queue length does an incoming req see
system.mem_ctrls1.rdQLenPdf::19                     0                       # What read queue length does an incoming req see
system.mem_ctrls1.rdQLenPdf::20                     0                       # What read queue length does an incoming req see
system.mem_ctrls1.rdQLenPdf::21                     0                       # What read queue length does an incoming req see
system.mem_ctrls1.rdQLenPdf::22                     0                       # What read queue length does an incoming req see
system.mem_ctrls1.rdQLenPdf::23                     0                       # What read queue length does an incoming req see
system.mem_ctrls1.rdQLenPdf::24                     0                       # What read queue length does an incoming req see
system.mem_ctrls1.rdQLenPdf::25                     0                       # What read queue length does an incoming req see
system.mem_ctrls1.rdQLenPdf::26                     0                       # What read queue length does an incoming req see
system.mem_ctrls1.rdQLenPdf::27                     0                       # What read queue length does an incoming req see
system.mem_ctrls1.rdQLenPdf::28                     0                       # What read queue length does an incoming req see
system.mem_ctrls1.rdQLenPdf::29                     0                       # What read queue length does an incoming req see
system.mem_ctrls1.rdQLenPdf::30                     0                       # What read queue length does an incoming req see
system.mem_ctrls1.rdQLenPdf::31                     0                       # What read queue length does an incoming req see
system.mem_ctrls1.wrQLenPdf::0                      0                       # What write queue length does an incoming req see
system.mem_ctrls1.wrQLenPdf::1                      0                       # What write queue length does an incoming req see
system.mem_ctrls1.wrQLenPdf::2                      0                       # What write queue length does an incoming req see
system.mem_ctrls1.wrQLenPdf::3                      0                       # What write queue length does an incoming req see
system.mem_ctrls1.wrQLenPdf::4                      0                       # What write queue length does an incoming req see
system.mem_ctrls1.wrQLenPdf::5                      0                       # What write queue length does an incoming req see
system.mem_ctrls1.wrQLenPdf::6                      0                       # What write queue length does an incoming req see
system.mem_ctrls1.wrQLenPdf::7                      0                       # What write queue length does an incoming req see
system.mem_ctrls1.wrQLenPdf::8                      0                       # What write queue length does an incoming req see
system.mem_ctrls1.wrQLenPdf::9                      0                       # What write queue length does an incoming req see
system.mem_ctrls1.wrQLenPdf::10                     0                       # What write queue length does an incoming req see
system.mem_ctrls1.wrQLenPdf::11                     0                       # What write queue length does an incoming req see
system.mem_ctrls1.wrQLenPdf::12                     0                       # What write queue length does an incoming req see
system.mem_ctrls1.wrQLenPdf::13                     0                       # What write queue length does an incoming req see
system.mem_ctrls1.wrQLenPdf::14                     0                       # What write queue length does an incoming req see
system.mem_ctrls1.wrQLenPdf::15                   143                       # What write queue length does an incoming req see
system.mem_ctrls1.wrQLenPdf::16                   154                       # What write queue length does an incoming req see
system.mem_ctrls1.wrQLenPdf::17                   573                       # What write queue length does an incoming req see
system.mem_ctrls1.wrQLenPdf::18                   578                       # What write queue length does an incoming req see
system.mem_ctrls1.wrQLenPdf::19                   595                       # What write queue length does an incoming req see
system.mem_ctrls1.wrQLenPdf::20                   576                       # What write queue length does an incoming req see
system.mem_ctrls1.wrQLenPdf::21                   588                       # What write queue length does an incoming req see
system.mem_ctrls1.wrQLenPdf::22                   581                       # What write queue length does an incoming req see
system.mem_ctrls1.wrQLenPdf::23                   567                       # What write queue length does an incoming req see
system.mem_ctrls1.wrQLenPdf::24                   570                       # What write queue length does an incoming req see
system.mem_ctrls1.wrQLenPdf::25                   567                       # What write queue length does an incoming req see
system.mem_ctrls1.wrQLenPdf::26                   569                       # What write queue length does an incoming req see
system.mem_ctrls1.wrQLenPdf::27                   567                       # What write queue length does an incoming req see
system.mem_ctrls1.wrQLenPdf::28                   565                       # What write queue length does an incoming req see
system.mem_ctrls1.wrQLenPdf::29                   567                       # What write queue length does an incoming req see
system.mem_ctrls1.wrQLenPdf::30                   569                       # What write queue length does an incoming req see
system.mem_ctrls1.wrQLenPdf::31                   566                       # What write queue length does an incoming req see
system.mem_ctrls1.wrQLenPdf::32                   565                       # What write queue length does an incoming req see
system.mem_ctrls1.wrQLenPdf::33                     4                       # What write queue length does an incoming req see
system.mem_ctrls1.wrQLenPdf::34                     3                       # What write queue length does an incoming req see
system.mem_ctrls1.wrQLenPdf::35                     3                       # What write queue length does an incoming req see
system.mem_ctrls1.wrQLenPdf::36                     2                       # What write queue length does an incoming req see
system.mem_ctrls1.wrQLenPdf::37                     1                       # What write queue length does an incoming req see
system.mem_ctrls1.wrQLenPdf::38                     0                       # What write queue length does an incoming req see
system.mem_ctrls1.wrQLenPdf::39                     0                       # What write queue length does an incoming req see
system.mem_ctrls1.wrQLenPdf::40                     0                       # What write queue length does an incoming req see
system.mem_ctrls1.wrQLenPdf::41                     0                       # What write queue length does an incoming req see
system.mem_ctrls1.wrQLenPdf::42                     0                       # What write queue length does an incoming req see
system.mem_ctrls1.wrQLenPdf::43                     0                       # What write queue length does an incoming req see
system.mem_ctrls1.wrQLenPdf::44                     0                       # What write queue length does an incoming req see
system.mem_ctrls1.wrQLenPdf::45                     0                       # What write queue length does an incoming req see
system.mem_ctrls1.wrQLenPdf::46                     0                       # What write queue length does an incoming req see
system.mem_ctrls1.wrQLenPdf::47                     0                       # What write queue length does an incoming req see
system.mem_ctrls1.wrQLenPdf::48                     0                       # What write queue length does an incoming req see
system.mem_ctrls1.wrQLenPdf::49                     0                       # What write queue length does an incoming req see
system.mem_ctrls1.wrQLenPdf::50                     0                       # What write queue length does an incoming req see
system.mem_ctrls1.wrQLenPdf::51                     0                       # What write queue length does an incoming req see
system.mem_ctrls1.wrQLenPdf::52                     0                       # What write queue length does an incoming req see
system.mem_ctrls1.wrQLenPdf::53                     0                       # What write queue length does an incoming req see
system.mem_ctrls1.wrQLenPdf::54                     0                       # What write queue length does an incoming req see
system.mem_ctrls1.wrQLenPdf::55                     0                       # What write queue length does an incoming req see
system.mem_ctrls1.wrQLenPdf::56                     0                       # What write queue length does an incoming req see
system.mem_ctrls1.wrQLenPdf::57                     0                       # What write queue length does an incoming req see
system.mem_ctrls1.wrQLenPdf::58                     0                       # What write queue length does an incoming req see
system.mem_ctrls1.wrQLenPdf::59                     0                       # What write queue length does an incoming req see
system.mem_ctrls1.wrQLenPdf::60                     0                       # What write queue length does an incoming req see
system.mem_ctrls1.wrQLenPdf::61                     0                       # What write queue length does an incoming req see
system.mem_ctrls1.wrQLenPdf::62                     0                       # What write queue length does an incoming req see
system.mem_ctrls1.wrQLenPdf::63                     0                       # What write queue length does an incoming req see
system.mem_ctrls1.bytesPerActivate::samples        25234                       # Bytes accessed per row activation
system.mem_ctrls1.bytesPerActivate::mean   219.599588                       # Bytes accessed per row activation
system.mem_ctrls1.bytesPerActivate::gmean   121.668123                       # Bytes accessed per row activation
system.mem_ctrls1.bytesPerActivate::stdev   302.556358                       # Bytes accessed per row activation
system.mem_ctrls1.bytesPerActivate::0-127        15024     59.54%     59.54% # Bytes accessed per row activation
system.mem_ctrls1.bytesPerActivate::128-255         4864     19.28%     78.81% # Bytes accessed per row activation
system.mem_ctrls1.bytesPerActivate::256-383         1288      5.10%     83.92% # Bytes accessed per row activation
system.mem_ctrls1.bytesPerActivate::384-511          557      2.21%     86.13% # Bytes accessed per row activation
system.mem_ctrls1.bytesPerActivate::512-639          297      1.18%     87.30% # Bytes accessed per row activation
system.mem_ctrls1.bytesPerActivate::640-767          294      1.17%     88.47% # Bytes accessed per row activation
system.mem_ctrls1.bytesPerActivate::768-895          179      0.71%     89.18% # Bytes accessed per row activation
system.mem_ctrls1.bytesPerActivate::896-1023          159      0.63%     89.81% # Bytes accessed per row activation
system.mem_ctrls1.bytesPerActivate::1024-1151         2572     10.19%    100.00% # Bytes accessed per row activation
system.mem_ctrls1.bytesPerActivate::total        25234                       # Bytes accessed per row activation
system.mem_ctrls1.rdPerTurnAround::samples          565                       # Reads before turning the bus around for writes
system.mem_ctrls1.rdPerTurnAround::mean    137.192920                       # Reads before turning the bus around for writes
system.mem_ctrls1.rdPerTurnAround::stdev  1043.751377                       # Reads before turning the bus around for writes
system.mem_ctrls1.rdPerTurnAround::0-1023          562     99.47%     99.47% # Reads before turning the bus around for writes
system.mem_ctrls1.rdPerTurnAround::2048-3071            1      0.18%     99.65% # Reads before turning the bus around for writes
system.mem_ctrls1.rdPerTurnAround::14336-15359            1      0.18%     99.82% # Reads before turning the bus around for writes
system.mem_ctrls1.rdPerTurnAround::19456-20479            1      0.18%    100.00% # Reads before turning the bus around for writes
system.mem_ctrls1.rdPerTurnAround::total          565                       # Reads before turning the bus around for writes
system.mem_ctrls1.wrPerTurnAround::samples          565                       # Writes before turning the bus around for reads
system.mem_ctrls1.wrPerTurnAround::mean     16.778761                       # Writes before turning the bus around for reads
system.mem_ctrls1.wrPerTurnAround::gmean    16.720283                       # Writes before turning the bus around for reads
system.mem_ctrls1.wrPerTurnAround::stdev     1.479976                       # Writes before turning the bus around for reads
system.mem_ctrls1.wrPerTurnAround::16             416     73.63%     73.63% # Writes before turning the bus around for reads
system.mem_ctrls1.wrPerTurnAround::17               4      0.71%     74.34% # Writes before turning the bus around for reads
system.mem_ctrls1.wrPerTurnAround::18              69     12.21%     86.55% # Writes before turning the bus around for reads
system.mem_ctrls1.wrPerTurnAround::19              34      6.02%     92.57% # Writes before turning the bus around for reads
system.mem_ctrls1.wrPerTurnAround::20              30      5.31%     97.88% # Writes before turning the bus around for reads
system.mem_ctrls1.wrPerTurnAround::21               5      0.88%     98.76% # Writes before turning the bus around for reads
system.mem_ctrls1.wrPerTurnAround::22               4      0.71%     99.47% # Writes before turning the bus around for reads
system.mem_ctrls1.wrPerTurnAround::25               3      0.53%    100.00% # Writes before turning the bus around for reads
system.mem_ctrls1.wrPerTurnAround::total          565                       # Writes before turning the bus around for reads
system.mem_ctrls1.totQLat                   550941749                       # Total ticks spent queuing
system.mem_ctrls1.totMemAccLat             1996604249                       # Total ticks spent from burst creation until serviced by the DRAM
system.mem_ctrls1.totBusLat                 385510000                       # Total ticks spent in databus transfers
system.mem_ctrls1.avgQLat                     7145.62                       # Average queueing delay per DRAM burst
system.mem_ctrls1.avgBusLat                   5000.00                       # Average bus latency per DRAM burst
system.mem_ctrls1.avgMemAccLat               25895.62                       # Average memory access latency per DRAM burst
system.mem_ctrls1.avgRdBW                        1.66                       # Average DRAM read bandwidth in MiByte/s
system.mem_ctrls1.avgWrBW                        0.20                       # Average achieved write bandwidth in MiByte/s
system.mem_ctrls1.avgRdBWSys                     1.67                       # Average system read bandwidth in MiByte/s
system.mem_ctrls1.avgWrBWSys                     0.21                       # Average system write bandwidth in MiByte/s
system.mem_ctrls1.peakBW                     12800.00                       # Theoretical peak bandwidth in MiByte/s
system.mem_ctrls1.busUtil                        0.01                       # Data bus utilization in percentage
system.mem_ctrls1.busUtilRead                    0.01                       # Data bus utilization in percentage for reads
system.mem_ctrls1.busUtilWrite                   0.00                       # Data bus utilization in percentage for writes
system.mem_ctrls1.avgRdQLen                      1.00                       # Average read queue length when enqueuing
system.mem_ctrls1.avgWrQLen                     25.57                       # Average write queue length when enqueuing
system.mem_ctrls1.readRowHits                   56946                       # Number of row buffer hits during reads
system.mem_ctrls1.writeRowHits                   4403                       # Number of row buffer hits during writes
system.mem_ctrls1.readRowHitRate                73.86                       # Row buffer hit rate for reads
system.mem_ctrls1.writeRowHitRate               46.48                       # Row buffer hit rate for writes
system.mem_ctrls1.avgGap                  34070798.20                       # Average gap between requests
system.mem_ctrls1.pageHitRate                   70.86                       # Row buffer hit rate, read and write combined
system.mem_ctrls1_0.actEnergy               103927320                       # Energy for activate commands per rank (pJ)
system.mem_ctrls1_0.preEnergy                56706375                       # Energy for precharge commands per rank (pJ)
system.mem_ctrls1_0.readEnergy              334822800                       # Energy for read commands per rank (pJ)
system.mem_ctrls1_0.writeEnergy              29302560                       # Energy for write commands per rank (pJ)
system.mem_ctrls1_0.refreshEnergy        194056833360                       # Energy for refresh commands per rank (pJ)
system.mem_ctrls1_0.actBackEnergy         82495536840                       # Energy for active background per rank (pJ)
system.mem_ctrls1_0.preBackEnergy        1710286686750                       # Energy for precharge background per rank (pJ)
system.mem_ctrls1_0.totalEnergy          1987363816005                       # Total energy per rank (pJ)
system.mem_ctrls1_0.averagePower           668.901631                       # Core power per rank (mW)
system.mem_ctrls1_0.memoryStateTime::IDLE 2843150737750                       # Time in different power states
system.mem_ctrls1_0.memoryStateTime::REF  99080020000                       # Time in different power states
system.mem_ctrls1_0.memoryStateTime::PRE_PDN            0                       # Time in different power states
system.mem_ctrls1_0.memoryStateTime::ACT  24927402250                       # Time in different power states
system.mem_ctrls1_0.memoryStateTime::ACT_PDN            0                       # Time in different power states
system.mem_ctrls1_1.actEnergy               107563680                       # Energy for activate commands per rank (pJ)
system.mem_ctrls1_1.preEnergy                58690500                       # Energy for precharge commands per rank (pJ)
system.mem_ctrls1_1.readEnergy              331921200                       # Energy for read commands per rank (pJ)
system.mem_ctrls1_1.writeEnergy              32335200                       # Energy for write commands per rank (pJ)
system.mem_ctrls1_1.refreshEnergy        194056833360                       # Energy for refresh commands per rank (pJ)
system.mem_ctrls1_1.actBackEnergy         82378182105                       # Energy for active background per rank (pJ)
system.mem_ctrls1_1.preBackEnergy        1710389629500                       # Energy for precharge background per rank (pJ)
system.mem_ctrls1_1.totalEnergy          1987355155545                       # Total energy per rank (pJ)
system.mem_ctrls1_1.averagePower           668.898716                       # Core power per rank (mW)
system.mem_ctrls1_1.memoryStateTime::IDLE 2843836129500                       # Time in different power states
system.mem_ctrls1_1.memoryStateTime::REF  99080020000                       # Time in different power states
system.mem_ctrls1_1.memoryStateTime::PRE_PDN            0                       # Time in different power states
system.mem_ctrls1_1.memoryStateTime::ACT  24244641750                       # Time in different power states
system.mem_ctrls1_1.memoryStateTime::ACT_PDN            0                       # Time in different power states
system.cpu_voltage_domain.voltage                   1                       # Voltage in Volts
system.cpu_clk_domain.clock                       500                       # Clock period in ticks
system.cpu0.apic_clk_domain.clock                8000                       # Clock period in ticks
system.cpu0.numCycles                      5931203223                       # number of cpu cycles simulated
system.cpu0.numWorkItemsStarted                     0                       # number of work items this cpu started
system.cpu0.numWorkItemsCompleted                   0                       # number of work items this cpu completed
system.cpu0.kern.inst.arm                           0                       # number of arm instructions executed
system.cpu0.kern.inst.quiesce                       0                       # number of quiesce instructions executed
system.cpu0.committedInsts                   48149503                       # Number of instructions committed
system.cpu0.committedOps                     84897849                       # Number of ops (including micro ops) committed
system.cpu0.num_int_alu_accesses             74390801                       # Number of integer alu accesses
system.cpu0.num_fp_alu_accesses              19654241                       # Number of float alu accesses
system.cpu0.num_func_calls                    1291138                       # number of times a function call or return occured
system.cpu0.num_conditional_control_insts      6363858                       # number of instructions that are conditional controls
system.cpu0.num_int_insts                    74390801                       # number of integer instructions
system.cpu0.num_fp_insts                     19654241                       # number of float instructions
system.cpu0.num_int_register_reads          152474071                       # number of times the integer registers were read
system.cpu0.num_int_register_writes          55474473                       # number of times the integer registers were written
system.cpu0.num_fp_register_reads            27210082                       # number of times the floating registers were read
system.cpu0.num_fp_register_writes           14481510                       # number of times the floating registers were written
system.cpu0.num_cc_register_reads            57448181                       # number of times the CC registers were read
system.cpu0.num_cc_register_writes           23278175                       # number of times the CC registers were written
system.cpu0.num_mem_refs                     20175607                       # number of memory refs
system.cpu0.num_load_insts                   13632067                       # Number of load instructions
system.cpu0.num_store_insts                   6543540                       # Number of store instructions
system.cpu0.num_idle_cycles              5750708169.823518                       # Number of idle cycles
system.cpu0.num_busy_cycles              180495053.176482                       # Number of busy cycles
system.cpu0.not_idle_fraction                0.030431                       # Percentage of non-idle cycles
system.cpu0.idle_fraction                    0.969569                       # Percentage of idle cycles
system.cpu0.Branches                          8625777                       # Number of branches fetched
system.cpu0.op_class::No_OpClass               203528      0.24%      0.24% # Class of executed instruction
system.cpu0.op_class::IntAlu                 55464536     65.33%     65.57% # Class of executed instruction
system.cpu0.op_class::IntMult                  243942      0.29%     65.86% # Class of executed instruction
system.cpu0.op_class::IntDiv                   836224      0.98%     66.84% # Class of executed instruction
system.cpu0.op_class::FloatAdd                7916184      9.32%     76.17% # Class of executed instruction
system.cpu0.op_class::FloatCmp                      0      0.00%     76.17% # Class of executed instruction
system.cpu0.op_class::FloatCvt                      0      0.00%     76.17% # Class of executed instruction
system.cpu0.op_class::FloatMult                     0      0.00%     76.17% # Class of executed instruction
system.cpu0.op_class::FloatDiv                  57876      0.07%     76.24% # Class of executed instruction
system.cpu0.op_class::FloatSqrt                     0      0.00%     76.24% # Class of executed instruction
system.cpu0.op_class::SimdAdd                       0      0.00%     76.24% # Class of executed instruction
system.cpu0.op_class::SimdAddAcc                    0      0.00%     76.24% # Class of executed instruction
system.cpu0.op_class::SimdAlu                       0      0.00%     76.24% # Class of executed instruction
system.cpu0.op_class::SimdCmp                       0      0.00%     76.24% # Class of executed instruction
system.cpu0.op_class::SimdCvt                       0      0.00%     76.24% # Class of executed instruction
system.cpu0.op_class::SimdMisc                      0      0.00%     76.24% # Class of executed instruction
system.cpu0.op_class::SimdMult                      0      0.00%     76.24% # Class of executed instruction
system.cpu0.op_class::SimdMultAcc                   0      0.00%     76.24% # Class of executed instruction
system.cpu0.op_class::SimdShift                     0      0.00%     76.24% # Class of executed instruction
system.cpu0.op_class::SimdShiftAcc                  0      0.00%     76.24% # Class of executed instruction
system.cpu0.op_class::SimdSqrt                      0      0.00%     76.24% # Class of executed instruction
system.cpu0.op_class::SimdFloatAdd                  0      0.00%     76.24% # Class of executed instruction
system.cpu0.op_class::SimdFloatAlu                  0      0.00%     76.24% # Class of executed instruction
system.cpu0.op_class::SimdFloatCmp                  0      0.00%     76.24% # Class of executed instruction
system.cpu0.op_class::SimdFloatCvt                  0      0.00%     76.24% # Class of executed instruction
system.cpu0.op_class::SimdFloatDiv                  0      0.00%     76.24% # Class of executed instruction
system.cpu0.op_class::SimdFloatMisc                 0      0.00%     76.24% # Class of executed instruction
system.cpu0.op_class::SimdFloatMult                 0      0.00%     76.24% # Class of executed instruction
system.cpu0.op_class::SimdFloatMultAcc              0      0.00%     76.24% # Class of executed instruction
system.cpu0.op_class::SimdFloatSqrt                 0      0.00%     76.24% # Class of executed instruction
system.cpu0.op_class::MemRead                13632067     16.06%     92.29% # Class of executed instruction
system.cpu0.op_class::MemWrite                6543540      7.71%    100.00% # Class of executed instruction
system.cpu0.op_class::IprAccess                     0      0.00%    100.00% # Class of executed instruction
system.cpu0.op_class::InstPrefetch                  0      0.00%    100.00% # Class of executed instruction
system.cpu0.op_class::total                  84897897                       # Class of executed instruction
system.cpu1.apic_clk_domain.clock                8000                       # Clock period in ticks
system.cpu1.numCycles                      5935617583                       # number of cpu cycles simulated
system.cpu1.numWorkItemsStarted                     0                       # number of work items this cpu started
system.cpu1.numWorkItemsCompleted                   0                       # number of work items this cpu completed
system.cpu1.kern.inst.arm                           0                       # number of arm instructions executed
system.cpu1.kern.inst.quiesce                       0                       # number of quiesce instructions executed
system.cpu1.committedInsts                  747445963                       # Number of instructions committed
system.cpu1.committedOps                   1240999428                       # Number of ops (including micro ops) committed
system.cpu1.num_int_alu_accesses            943738676                       # Number of integer alu accesses
system.cpu1.num_fp_alu_accesses             480023020                       # Number of float alu accesses
system.cpu1.num_func_calls                   17087712                       # number of times a function call or return occured
system.cpu1.num_conditional_control_insts     84407160                       # number of instructions that are conditional controls
system.cpu1.num_int_insts                   943738676                       # number of integer instructions
system.cpu1.num_fp_insts                    480023020                       # number of float instructions
system.cpu1.num_int_register_reads         1986454542                       # number of times the integer registers were read
system.cpu1.num_int_register_writes         636164670                       # number of times the integer registers were written
system.cpu1.num_fp_register_reads           764630845                       # number of times the floating registers were read
system.cpu1.num_fp_register_writes          392635481                       # number of times the floating registers were written
system.cpu1.num_cc_register_reads           707253799                       # number of times the CC registers were read
system.cpu1.num_cc_register_writes          271439017                       # number of times the CC registers were written
system.cpu1.num_mem_refs                    311917928                       # number of memory refs
system.cpu1.num_load_insts                  231896077                       # Number of load instructions
system.cpu1.num_store_insts                  80021851                       # Number of store instructions
system.cpu1.num_idle_cycles              3023704620.762554                       # Number of idle cycles
system.cpu1.num_busy_cycles              2911912962.237446                       # Number of busy cycles
system.cpu1.not_idle_fraction                0.490583                       # Percentage of non-idle cycles
system.cpu1.idle_fraction                    0.509417                       # Percentage of idle cycles
system.cpu1.Branches                        113319976                       # Number of branches fetched
system.cpu1.op_class::No_OpClass              1555630      0.13%      0.13% # Class of executed instruction
system.cpu1.op_class::IntAlu                716205209     57.71%     57.84% # Class of executed instruction
system.cpu1.op_class::IntMult                 2111670      0.17%     58.01% # Class of executed instruction
system.cpu1.op_class::IntDiv                  8194492      0.66%     58.67% # Class of executed instruction
system.cpu1.op_class::FloatAdd              200598809     16.16%     74.83% # Class of executed instruction
system.cpu1.op_class::FloatCmp                      0      0.00%     74.83% # Class of executed instruction
system.cpu1.op_class::FloatCvt                      0      0.00%     74.83% # Class of executed instruction
system.cpu1.op_class::FloatMult                     0      0.00%     74.83% # Class of executed instruction
system.cpu1.op_class::FloatDiv                 415814      0.03%     74.87% # Class of executed instruction
system.cpu1.op_class::FloatSqrt                     0      0.00%     74.87% # Class of executed instruction
system.cpu1.op_class::SimdAdd                       0      0.00%     74.87% # Class of executed instruction
system.cpu1.op_class::SimdAddAcc                    0      0.00%     74.87% # Class of executed instruction
system.cpu1.op_class::SimdAlu                       0      0.00%     74.87% # Class of executed instruction
system.cpu1.op_class::SimdCmp                       0      0.00%     74.87% # Class of executed instruction
system.cpu1.op_class::SimdCvt                       0      0.00%     74.87% # Class of executed instruction
system.cpu1.op_class::SimdMisc                      0      0.00%     74.87% # Class of executed instruction
system.cpu1.op_class::SimdMult                      0      0.00%     74.87% # Class of executed instruction
system.cpu1.op_class::SimdMultAcc                   0      0.00%     74.87% # Class of executed instruction
system.cpu1.op_class::SimdShift                     0      0.00%     74.87% # Class of executed instruction
system.cpu1.op_class::SimdShiftAcc                  0      0.00%     74.87% # Class of executed instruction
system.cpu1.op_class::SimdSqrt                      0      0.00%     74.87% # Class of executed instruction
system.cpu1.op_class::SimdFloatAdd                  0      0.00%     74.87% # Class of executed instruction
system.cpu1.op_class::SimdFloatAlu                  0      0.00%     74.87% # Class of executed instruction
system.cpu1.op_class::SimdFloatCmp                  0      0.00%     74.87% # Class of executed instruction
system.cpu1.op_class::SimdFloatCvt                  0      0.00%     74.87% # Class of executed instruction
system.cpu1.op_class::SimdFloatDiv                  0      0.00%     74.87% # Class of executed instruction
system.cpu1.op_class::SimdFloatMisc                 0      0.00%     74.87% # Class of executed instruction
system.cpu1.op_class::SimdFloatMult                 0      0.00%     74.87% # Class of executed instruction
system.cpu1.op_class::SimdFloatMultAcc              0      0.00%     74.87% # Class of executed instruction
system.cpu1.op_class::SimdFloatSqrt                 0      0.00%     74.87% # Class of executed instruction
system.cpu1.op_class::MemRead               231896077     18.69%     93.55% # Class of executed instruction
system.cpu1.op_class::MemWrite               80021851      6.45%    100.00% # Class of executed instruction
system.cpu1.op_class::IprAccess                     0      0.00%    100.00% # Class of executed instruction
system.cpu1.op_class::InstPrefetch                  0      0.00%    100.00% # Class of executed instruction
system.cpu1.op_class::total                1240999552                       # Class of executed instruction
system.cpu2.apic_clk_domain.clock                8000                       # Clock period in ticks
system.cpu2.numCycles                      5932751729                       # number of cpu cycles simulated
system.cpu2.numWorkItemsStarted                     0                       # number of work items this cpu started
system.cpu2.numWorkItemsCompleted                   0                       # number of work items this cpu completed
system.cpu2.kern.inst.arm                           0                       # number of arm instructions executed
system.cpu2.kern.inst.quiesce                       0                       # number of quiesce instructions executed
system.cpu2.committedInsts                    2688694                       # Number of instructions committed
system.cpu2.committedOps                      5685291                       # Number of ops (including micro ops) committed
system.cpu2.num_int_alu_accesses              5574849                       # Number of integer alu accesses
system.cpu2.num_fp_alu_accesses                   154                       # Number of float alu accesses
system.cpu2.num_func_calls                     148444                       # number of times a function call or return occured
system.cpu2.num_conditional_control_insts       464137                       # number of instructions that are conditional controls
system.cpu2.num_int_insts                     5574849                       # number of integer instructions
system.cpu2.num_fp_insts                          154                       # number of float instructions
system.cpu2.num_int_register_reads           11028771                       # number of times the integer registers were read
system.cpu2.num_int_register_writes           4586417                       # number of times the integer registers were written
system.cpu2.num_fp_register_reads                 258                       # number of times the floating registers were read
system.cpu2.num_fp_register_writes                126                       # number of times the floating registers were written
system.cpu2.num_cc_register_reads             3493295                       # number of times the CC registers were read
system.cpu2.num_cc_register_writes            1785069                       # number of times the CC registers were written
system.cpu2.num_mem_refs                      1255894                       # number of memory refs
system.cpu2.num_load_insts                     786885                       # Number of load instructions
system.cpu2.num_store_insts                    469009                       # Number of store instructions
system.cpu2.num_idle_cycles              5921618317.221903                       # Number of idle cycles
system.cpu2.num_busy_cycles              11133411.778097                       # Number of busy cycles
system.cpu2.not_idle_fraction                0.001877                       # Percentage of non-idle cycles
system.cpu2.idle_fraction                    0.998123                       # Percentage of idle cycles
[...]
system.ruby.DMA_Controller.Data          |       92499    100.00%    100.00% |           0      0.00%    100.00%
system.ruby.DMA_Controller.Data::total          92499                      
system.ruby.DMA_Controller.Ack           |        3008    100.00%    100.00% |           0      0.00%    100.00%
system.ruby.DMA_Controller.Ack::total            3008                      
system.ruby.DMA_Controller.READY.ReadRequest |       92499    100.00%    100.00% |           0      0.00%    100.00%
system.ruby.DMA_Controller.READY.ReadRequest::total        92499                      
system.ruby.DMA_Controller.READY.WriteRequest |        3008    100.00%    100.00% |           0      0.00%    100.00%
system.ruby.DMA_Controller.READY.WriteRequest::total         3008                      
system.ruby.DMA_Controller.BUSY_RD.Data  |       92499    100.00%    100.00% |           0      0.00%    100.00%
system.ruby.DMA_Controller.BUSY_RD.Data::total        92499                      
system.ruby.DMA_Controller.BUSY_WR.Ack   |        3008    100.00%    100.00% |           0      0.00%    100.00%
system.ruby.DMA_Controller.BUSY_WR.Ack::total         3008                      
system.ruby.L1Cache_Controller.Load      |    14136990      2.87%      2.87% |   238559512     48.39%     51.26% |     1113429      0.23%     51.49% |   239166003     48.51%    100.00%
system.ruby.L1Cache_Controller.Load::total    492975934                      
system.ruby.L1Cache_Controller.Ifetch    |    71777587      3.20%      3.20% |  1098483935     49.00%     52.21% |     5365153      0.24%     52.45% |  1065970244     47.55%    100.00%
system.ruby.L1Cache_Controller.Ifetch::total   2241596919                      
system.ruby.L1Cache_Controller.Store     |     7222885      4.17%      4.17% |    82861402     47.86%     52.04% |      791498      0.46%     52.49% |    82239049     47.51%    100.00%
system.ruby.L1Cache_Controller.Store::total    173114834                      
system.ruby.L1Cache_Controller.Inv       |       18996     23.06%     23.06% |       22194     26.95%     50.01% |       22365     27.15%     77.16% |       18811     22.84%    100.00%
system.ruby.L1Cache_Controller.Inv::total        82366                      
system.ruby.L1Cache_Controller.L1_Replacement |      258210      2.07%      2.07% |     6292054     50.42%     52.49% |       87893      0.70%     53.19% |     5841714     46.81%    100.00%
system.ruby.L1Cache_Controller.L1_Replacement::total     12479871                      
system.ruby.L1Cache_Controller.Fwd_GETX  |        1833     20.32%     20.32% |        3296     36.54%     56.86% |        2286     25.34%     82.21% |        1605     17.79%    100.00%
system.ruby.L1Cache_Controller.Fwd_GETX::total         9020                      
system.ruby.L1Cache_Controller.Fwd_GETS  |        9443     32.74%     32.74% |        6537     22.66%     55.41% |        7363     25.53%     80.93% |        5499     19.07%    100.00%
system.ruby.L1Cache_Controller.Fwd_GETS::total        28842                      
system.ruby.L1Cache_Controller.Data      |         805     24.74%     24.74% |         724     22.25%     46.99% |        1045     32.11%     79.10% |         680     20.90%    100.00%
system.ruby.L1Cache_Controller.Data::total         3254                      
system.ruby.L1Cache_Controller.Data_Exclusive |       69302      0.84%      0.84% |     3688009     44.63%     45.46% |       16707      0.20%     45.67% |     4490175     54.33%    100.00%
system.ruby.L1Cache_Controller.Data_Exclusive::total      8264193                      
system.ruby.L1Cache_Controller.DataS_fromL1 |        5883     20.40%     20.40% |        8306     28.80%     49.20% |       10033     34.79%     83.98% |        4620     16.02%    100.00%
system.ruby.L1Cache_Controller.DataS_fromL1::total        28842                      
system.ruby.L1Cache_Controller.Data_all_Acks |      186222      4.42%      4.42% |     2603035     61.82%     66.24% |       69219      1.64%     67.89% |     1352142     32.11%    100.00%
system.ruby.L1Cache_Controller.Data_all_Acks::total      4210618                      
system.ruby.L1Cache_Controller.Ack       |       19066     46.42%     46.42% |        8480     20.65%     67.06% |        6360     15.48%     82.55% |        7169     17.45%    100.00%
system.ruby.L1Cache_Controller.Ack::total        41075                      
system.ruby.L1Cache_Controller.Ack_all   |        9250     36.06%     36.06% |        6509     25.38%     61.44% |        5305     20.68%     82.12% |        4587     17.88%    100.00%
system.ruby.L1Cache_Controller.Ack_all::total        25651                      
system.ruby.L1Cache_Controller.WB_Ack    |       86394      0.97%      0.97% |     4014906     45.01%     45.98% |       23394      0.26%     46.24% |     4794654     53.76%    100.00%
system.ruby.L1Cache_Controller.WB_Ack::total      8919348                      
system.ruby.L1Cache_Controller.NP.Load   |       82762      0.92%      0.92% |     4133995     45.79%     46.70% |       28052      0.31%     47.01% |     4783904     52.99%    100.00%
system.ruby.L1Cache_Controller.NP.Load::total      9028713                      
system.ruby.L1Cache_Controller.NP.Ifetch |      155600      5.59%      5.59% |     1828567     65.71%     71.30% |       48193      1.73%     73.04% |      750358     26.96%    100.00%
system.ruby.L1Cache_Controller.NP.Ifetch::total      2782718                      
system.ruby.L1Cache_Controller.NP.Store  |       19848      2.97%      2.97% |      329683     49.27%     52.23% |       11648      1.74%     53.97% |      308023     46.03%    100.00%
system.ruby.L1Cache_Controller.NP.Store::total       669202                      
system.ruby.L1Cache_Controller.NP.Inv    |       10080     26.21%     26.21% |       11073     28.80%     55.01% |        8504     22.12%     77.13% |        8795     22.87%    100.00%
system.ruby.L1Cache_Controller.NP.Inv::total        38452                      
system.ruby.L1Cache_Controller.I.Load    |        2360     12.51%     12.51% |        5511     29.22%     41.73% |        7037     37.31%     79.03% |        3955     20.97%    100.00%
system.ruby.L1Cache_Controller.I.Load::total        18863                      
system.ruby.L1Cache_Controller.I.Ifetch  |         391     27.21%     27.21% |         301     20.95%     48.16% |         369     25.68%     73.83% |         376     26.17%    100.00%
system.ruby.L1Cache_Controller.I.Ifetch::total         1437                      
system.ruby.L1Cache_Controller.I.Store   |        1251     20.95%     20.95% |        2015     33.75%     54.71% |        1703     28.53%     83.23% |        1001     16.77%    100.00%
system.ruby.L1Cache_Controller.I.Store::total         5970                      
system.ruby.L1Cache_Controller.I.L1_Replacement |        6577     25.24%     25.24% |        6388     24.51%     49.74% |        7036     27.00%     76.74% |        6062     23.26%    100.00%
system.ruby.L1Cache_Controller.I.L1_Replacement::total        26063                      
system.ruby.L1Cache_Controller.S.Load    |      210597      0.31%      0.31% |    39208580     57.75%     58.06% |      204482      0.30%     58.37% |    28264551     41.63%    100.00%
system.ruby.L1Cache_Controller.S.Load::total     67888210                      
system.ruby.L1Cache_Controller.S.Ifetch  |    71621595      3.20%      3.20% |  1096655067     48.98%     52.18% |     5316591      0.24%     52.42% |  1065219510     47.58%    100.00%
system.ruby.L1Cache_Controller.S.Ifetch::total   2238812763                      
system.ruby.L1Cache_Controller.S.Store   |        8445     37.70%     37.70% |        5787     25.83%     63.53% |        4262     19.03%     82.56% |        3907     17.44%    100.00%
system.ruby.L1Cache_Controller.S.Store::total        22401                      
system.ruby.L1Cache_Controller.S.Inv     |        7701     19.50%     19.50% |       10352     26.22%     45.72% |       12582     31.87%     77.59% |        8848     22.41%    100.00%
system.ruby.L1Cache_Controller.S.Inv::total        39483                      
system.ruby.L1Cache_Controller.S.L1_Replacement |      165239      4.68%      4.68% |     2270760     64.25%     68.92% |       57463      1.63%     70.55% |     1040998     29.45%    100.00%
system.ruby.L1Cache_Controller.S.L1_Replacement::total      3534460                      
system.ruby.L1Cache_Controller.E.Load    |     5831871      2.77%      2.77% |    97223124     46.22%     48.99% |      156732      0.07%     49.07% |   107129568     50.93%    100.00%
system.ruby.L1Cache_Controller.E.Load::total    210341295                      
system.ruby.L1Cache_Controller.E.Store   |       10632      5.11%      5.11% |      102044     49.04%     54.15% |        4178      2.01%     56.16% |       91214     43.84%    100.00%
system.ruby.L1Cache_Controller.E.Store::total       208068                      
system.ruby.L1Cache_Controller.E.Inv     |         387     27.01%     27.01% |         149     10.40%     37.40% |         348     24.28%     61.69% |         549     38.31%    100.00%
system.ruby.L1Cache_Controller.E.Inv::total         1433                      
system.ruby.L1Cache_Controller.E.L1_Replacement |       55595      0.69%      0.69% |     3583425     44.55%     45.24% |        8702      0.11%     45.35% |     4396367     54.65%    100.00%
system.ruby.L1Cache_Controller.E.L1_Replacement::total      8044089                      
system.ruby.L1Cache_Controller.E.Fwd_GETX |         605     32.60%     32.60% |         689     37.12%     69.72% |         394     21.23%     90.95% |         168      9.05%    100.00%
system.ruby.L1Cache_Controller.E.Fwd_GETX::total         1856                      
system.ruby.L1Cache_Controller.E.Fwd_GETS |        2066     24.12%     24.12% |        1587     18.53%     42.65% |        3109     36.29%     78.94% |        1804     21.06%    100.00%
system.ruby.L1Cache_Controller.E.Fwd_GETS::total         8566                      
system.ruby.L1Cache_Controller.M.Load    |     8009400      3.89%      3.89% |    97988302     47.64%     51.53% |      717126      0.35%     51.88% |    98984025     48.12%    100.00%
system.ruby.L1Cache_Controller.M.Load::total    205698853                      
system.ruby.L1Cache_Controller.M.Store   |     7182709      4.17%      4.17% |    82421873     47.86%     52.03% |      769707      0.45%     52.48% |    81834904     47.52%    100.00%
system.ruby.L1Cache_Controller.M.Store::total    172209193                      
system.ruby.L1Cache_Controller.M.Inv     |         828     27.66%     27.66% |         618     20.64%     48.30% |         929     31.03%     79.33% |         619     20.67%    100.00%
system.ruby.L1Cache_Controller.M.Inv::total         2994                      
system.ruby.L1Cache_Controller.M.L1_Replacement |       30799      3.52%      3.52% |      431481     49.30%     52.82% |       14692      1.68%     54.49% |      398287     45.51%    100.00%
system.ruby.L1Cache_Controller.M.L1_Replacement::total       875259                      
system.ruby.L1Cache_Controller.M.Fwd_GETX |        1228     17.14%     17.14% |        2607     36.39%     53.53% |        1892     26.41%     79.94% |        1437     20.06%    100.00%
system.ruby.L1Cache_Controller.M.Fwd_GETX::total         7164                      
system.ruby.L1Cache_Controller.M.Fwd_GETS |        7377     36.38%     36.38% |        4950     24.41%     60.80% |        4254     20.98%     81.78% |        3695     18.22%    100.00%
system.ruby.L1Cache_Controller.M.Fwd_GETS::total        20276                      
system.ruby.L1Cache_Controller.IS.Data_Exclusive |       69302      0.84%      0.84% |     3688009     44.63%     45.46% |       16707      0.20%     45.67% |     4490175     54.33%    100.00%
system.ruby.L1Cache_Controller.IS.Data_Exclusive::total      8264193                      
system.ruby.L1Cache_Controller.IS.DataS_fromL1 |        5883     20.40%     20.40% |        8306     28.80%     49.20% |       10033     34.79%     83.98% |        4620     16.02%    100.00%
system.ruby.L1Cache_Controller.IS.DataS_fromL1::total        28842                      
system.ruby.L1Cache_Controller.IS.Data_all_Acks |      165928      4.69%      4.69% |     2272059     64.21%     68.90% |       56911      1.61%     70.50% |     1043798     29.50%    100.00%
system.ruby.L1Cache_Controller.IS.Data_all_Acks::total      3538696                      
system.ruby.L1Cache_Controller.IM.Data   |         805     24.74%     24.74% |         724     22.25%     46.99% |        1045     32.11%     79.10% |         680     20.90%    100.00%
system.ruby.L1Cache_Controller.IM.Data::total         3254                      
system.ruby.L1Cache_Controller.IM.Data_all_Acks |       20294      3.02%      3.02% |      330976     49.26%     52.28% |       12308      1.83%     54.11% |      308344     45.89%    100.00%
system.ruby.L1Cache_Controller.IM.Data_all_Acks::total       671922                      
system.ruby.L1Cache_Controller.SM.Inv    |           0      0.00%      0.00% |           2     50.00%     50.00% |           2     50.00%    100.00% |           0      0.00%    100.00%
system.ruby.L1Cache_Controller.SM.Inv::total            4                      
system.ruby.L1Cache_Controller.SM.Ack    |       19066     46.42%     46.42% |        8480     20.65%     67.06% |        6360     15.48%     82.55% |        7169     17.45%    100.00%
system.ruby.L1Cache_Controller.SM.Ack::total        41075                      
system.ruby.L1Cache_Controller.SM.Ack_all |        9250     36.06%     36.06% |        6509     25.38%     61.44% |        5305     20.68%     82.12% |        4587     17.88%    100.00%
system.ruby.L1Cache_Controller.SM.Ack_all::total        25651                      
system.ruby.L1Cache_Controller.M_I.Ifetch |           1    100.00%    100.00% |           0      0.00%    100.00% |           0      0.00%    100.00% |           0      0.00%    100.00%
system.ruby.L1Cache_Controller.M_I.Ifetch::total            1                      
system.ruby.L1Cache_Controller.M_I.WB_Ack |       86394      0.97%      0.97% |     4014906     45.01%     45.98% |       23394      0.26%     46.24% |     4794654     53.76%    100.00%
system.ruby.L1Cache_Controller.M_I.WB_Ack::total      8919348                      
system.ruby.L2Cache_Controller.L1_GET_INSTR      2784155      0.00%      0.00%
system.ruby.L2Cache_Controller.L1_GETS        9048320      0.00%      0.00%
system.ruby.L2Cache_Controller.L1_GETX         675179      0.00%      0.00%
system.ruby.L2Cache_Controller.L1_UPGRADE        22401      0.00%      0.00%
system.ruby.L2Cache_Controller.L1_PUTX        8919348      0.00%      0.00%
system.ruby.L2Cache_Controller.L2_Replacement        38567      0.00%      0.00%
system.ruby.L2Cache_Controller.L2_Replacement_clean        90121      0.00%      0.00%
system.ruby.L2Cache_Controller.Mem_Data        145594      0.00%      0.00%
system.ruby.L2Cache_Controller.Mem_Ack         129373      0.00%      0.00%
system.ruby.L2Cache_Controller.WB_Data          23270      0.00%      0.00%
system.ruby.L2Cache_Controller.WB_Data_clean         8566      0.00%      0.00%
system.ruby.L2Cache_Controller.Ack              17601      0.00%      0.00%
system.ruby.L2Cache_Controller.Ack_all          17442      0.00%      0.00%
system.ruby.L2Cache_Controller.Unblock          28842      0.00%      0.00%
system.ruby.L2Cache_Controller.Exclusive_Unblock      8961766      0.00%      0.00%
system.ruby.L2Cache_Controller.MEM_Inv           1370      0.00%      0.00%
system.ruby.L2Cache_Controller.NP.L1_GET_INSTR        15009      0.00%      0.00%
system.ruby.L2Cache_Controller.NP.L1_GETS       103303      0.00%      0.00%
system.ruby.L2Cache_Controller.NP.L1_GETX        27282      0.00%      0.00%
system.ruby.L2Cache_Controller.SS.L1_GET_INSTR      2769120      0.00%      0.00%
system.ruby.L2Cache_Controller.SS.L1_GETS       754539      0.00%      0.00%
system.ruby.L2Cache_Controller.SS.L1_GETX         3254      0.00%      0.00%
system.ruby.L2Cache_Controller.SS.L1_UPGRADE        22397      0.00%      0.00%
system.ruby.L2Cache_Controller.SS.L2_Replacement         1013      0.00%      0.00%
system.ruby.L2Cache_Controller.SS.L2_Replacement_clean        14883      0.00%      0.00%
system.ruby.L2Cache_Controller.SS.MEM_Inv          113      0.00%      0.00%
system.ruby.L2Cache_Controller.M.L1_GET_INSTR           18      0.00%      0.00%
system.ruby.L2Cache_Controller.M.L1_GETS      8160891      0.00%      0.00%
system.ruby.L2Cache_Controller.M.L1_GETX       635620      0.00%      0.00%
system.ruby.L2Cache_Controller.M.L2_Replacement        36035      0.00%      0.00%
system.ruby.L2Cache_Controller.M.L2_Replacement_clean        72607      0.00%      0.00%
system.ruby.L2Cache_Controller.M.MEM_Inv          295      0.00%      0.00%
system.ruby.L2Cache_Controller.MT.L1_GETS        28842      0.00%      0.00%
system.ruby.L2Cache_Controller.MT.L1_GETX         9020      0.00%      0.00%
system.ruby.L2Cache_Controller.MT.L1_PUTX      8919348      0.00%      0.00%
system.ruby.L2Cache_Controller.MT.L2_Replacement         1519      0.00%      0.00%
system.ruby.L2Cache_Controller.MT.L2_Replacement_clean         2631      0.00%      0.00%
system.ruby.L2Cache_Controller.MT.MEM_Inv          277      0.00%      0.00%
system.ruby.L2Cache_Controller.M_I.L1_GETS            1      0.00%      0.00%
system.ruby.L2Cache_Controller.M_I.Mem_Ack       129373      0.00%      0.00%
system.ruby.L2Cache_Controller.M_I.MEM_Inv          295      0.00%      0.00%
system.ruby.L2Cache_Controller.MT_I.WB_Data         1582      0.00%      0.00%
system.ruby.L2Cache_Controller.MT_I.Ack_all          214      0.00%      0.00%
system.ruby.L2Cache_Controller.MT_I.MEM_Inv          277      0.00%      0.00%
system.ruby.L2Cache_Controller.MCT_I.WB_Data         1412      0.00%      0.00%
system.ruby.L2Cache_Controller.MCT_I.Ack_all         1219      0.00%      0.00%
system.ruby.L2Cache_Controller.I_I.Ack          16250      0.00%      0.00%
system.ruby.L2Cache_Controller.I_I.Ack_all        14883      0.00%      0.00%
system.ruby.L2Cache_Controller.S_I.Ack           1351      0.00%      0.00%
system.ruby.L2Cache_Controller.S_I.Ack_all         1126      0.00%      0.00%
system.ruby.L2Cache_Controller.S_I.MEM_Inv          113      0.00%      0.00%
system.ruby.L2Cache_Controller.ISS.L1_GETS            1      0.00%      0.00%
system.ruby.L2Cache_Controller.ISS.Mem_Data       103302      0.00%      0.00%
system.ruby.L2Cache_Controller.IS.L1_GET_INSTR            8      0.00%      0.00%
system.ruby.L2Cache_Controller.IS.Mem_Data        15010      0.00%      0.00%
system.ruby.L2Cache_Controller.IM.Mem_Data        27282      0.00%      0.00%
system.ruby.L2Cache_Controller.SS_MB.L1_GETS          112      0.00%      0.00%
system.ruby.L2Cache_Controller.SS_MB.L1_UPGRADE            4      0.00%      0.00%
system.ruby.L2Cache_Controller.SS_MB.Exclusive_Unblock        25651      0.00%      0.00%
system.ruby.L2Cache_Controller.MT_MB.L1_GETS          628      0.00%      0.00%
system.ruby.L2Cache_Controller.MT_MB.L1_GETX            3      0.00%      0.00%
system.ruby.L2Cache_Controller.MT_MB.Exclusive_Unblock      8936115      0.00%      0.00%
system.ruby.L2Cache_Controller.MT_IIB.L1_GETS            3      0.00%      0.00%
system.ruby.L2Cache_Controller.MT_IIB.WB_Data        20262      0.00%      0.00%
system.ruby.L2Cache_Controller.MT_IIB.WB_Data_clean         8561      0.00%      0.00%
system.ruby.L2Cache_Controller.MT_IIB.Unblock           19      0.00%      0.00%
system.ruby.L2Cache_Controller.MT_IB.WB_Data           14      0.00%      0.00%
system.ruby.L2Cache_Controller.MT_IB.WB_Data_clean            5      0.00%      0.00%
system.ruby.L2Cache_Controller.MT_SB.Unblock        28823      0.00%      0.00%

---------- End Simulation Statistics   ----------
