
---------- Begin Simulation Statistics ----------
sim_seconds                                  1.146056                       # Number of seconds simulated
sim_ticks                                1146056414500                       # Number of ticks simulated
final_tick                               53702576504001                       # Number of ticks from beginning of simulation (restored from checkpoints and never reset)
sim_freq                                 1000000000000                       # Frequency of simulated ticks
host_inst_rate                                 116415                       # Simulator instruction rate (inst/s)
host_op_rate                                   155721                       # Simulator op (including micro ops) rate (op/s)
host_tick_rate                              246475560                       # Simulator tick rate (ticks/s)
host_mem_usage                                1787608                       # Number of bytes of host memory used
host_seconds                                  4649.78                       # Real time elapsed on the host
sim_insts                                   541305879                       # Number of instructions simulated
sim_ops                                     724066284                       # Number of ops (including micro ops) simulated
system.voltage_domain.voltage                       1                       # Voltage in Volts
system.clk_domain.clock                          1000                       # Clock period in ticks
system.mem_ctrls.bytes_read::ruby.dir_cntrl0    181681472                       # Number of bytes read from this memory
system.mem_ctrls.bytes_read::total          181681472                       # Number of bytes read from this memory
system.mem_ctrls.bytes_written::ruby.dir_cntrl0    110621504                       # Number of bytes written to this memory
system.mem_ctrls.bytes_written::total       110621504                       # Number of bytes written to this memory
system.mem_ctrls.num_reads::ruby.dir_cntrl0      2838773                       # Number of read requests responded to by this memory
system.mem_ctrls.num_reads::total             2838773                       # Number of read requests responded to by this memory
system.mem_ctrls.num_writes::ruby.dir_cntrl0      1728461                       # Number of write requests responded to by this memory
system.mem_ctrls.num_writes::total            1728461                       # Number of write requests responded to by this memory
system.mem_ctrls.bw_read::ruby.dir_cntrl0    158527512                       # Total read bandwidth from this memory (bytes/s)
system.mem_ctrls.bw_read::total             158527512                       # Total read bandwidth from this memory (bytes/s)
system.mem_ctrls.bw_write::ruby.dir_cntrl0     96523611                       # Write bandwidth from this memory (bytes/s)
system.mem_ctrls.bw_write::total             96523611                       # Write bandwidth from this memory (bytes/s)
system.mem_ctrls.bw_total::ruby.dir_cntrl0    255051123                       # Total bandwidth to/from this memory (bytes/s)
system.mem_ctrls.bw_total::total            255051123                       # Total bandwidth to/from this memory (bytes/s)
system.mem_ctrls.readReqs                     2838773                       # Number of read requests accepted
system.mem_ctrls.writeReqs                    1728461                       # Number of write requests accepted
system.mem_ctrls.readBursts                   2838773                       # Number of DRAM read bursts, including those serviced by the write queue
system.mem_ctrls.writeBursts                  1728461                       # Number of DRAM write bursts, including those merged in the write queue
system.mem_ctrls.bytesReadDRAM              176226304                       # Total number of bytes read from DRAM
system.mem_ctrls.bytesReadWrQ                 5455168                       # Total number of bytes read from write queue
system.mem_ctrls.bytesWritten               110563136                       # Total number of bytes written to DRAM
system.mem_ctrls.bytesReadSys               181681472                       # Total read bytes from the system interface side
system.mem_ctrls.bytesWrittenSys            110621504                       # Total written bytes from the system interface side
system.mem_ctrls.servicedByWrQ                  85237                       # Number of DRAM read bursts serviced by the write queue
system.mem_ctrls.mergedWrBursts                   926                       # Number of DRAM write bursts merged with an existing one
system.mem_ctrls.neitherReadNorWriteReqs            0                       # Number of requests that are neither read nor write
system.mem_ctrls.perBankRdBursts::0            172407                       # Per bank write bursts
system.mem_ctrls.perBankRdBursts::1            184649                       # Per bank write bursts
system.mem_ctrls.perBankRdBursts::2            167497                       # Per bank write bursts
system.mem_ctrls.perBankRdBursts::3            167433                       # Per bank write bursts
system.mem_ctrls.perBankRdBursts::4            168355                       # Per bank write bursts
system.mem_ctrls.perBankRdBursts::5            171154                       # Per bank write bursts
system.mem_ctrls.perBankRdBursts::6            170861                       # Per bank write bursts
system.mem_ctrls.perBankRdBursts::7            173129                       # Per bank write bursts
system.mem_ctrls.perBankRdBursts::8            168927                       # Per bank write bursts
system.mem_ctrls.perBankRdBursts::9            169904                       # Per bank write bursts
system.mem_ctrls.perBankRdBursts::10           171853                       # Per bank write bursts
system.mem_ctrls.perBankRdBursts::11           176347                       # Per bank write bursts
system.mem_ctrls.perBankRdBursts::12           171300                       # Per bank write bursts
system.mem_ctrls.perBankRdBursts::13           174597                       # Per bank write bursts
system.mem_ctrls.perBankRdBursts::14           175917                       # Per bank write bursts
system.mem_ctrls.perBankRdBursts::15           169206                       # Per bank write bursts
system.mem_ctrls.perBankWrBursts::0            107409                       # Per bank write bursts
system.mem_ctrls.perBankWrBursts::1            114746                       # Per bank write bursts
system.mem_ctrls.perBankWrBursts::2            104873                       # Per bank write bursts
system.mem_ctrls.perBankWrBursts::3            105588                       # Per bank write bursts
system.mem_ctrls.perBankWrBursts::4            105216                       # Per bank write bursts
system.mem_ctrls.perBankWrBursts::5            107976                       # Per bank write bursts
system.mem_ctrls.perBankWrBursts::6            107960                       # Per bank write bursts
system.mem_ctrls.perBankWrBursts::7            106925                       # Per bank write bursts
system.mem_ctrls.perBankWrBursts::8            105211                       # Per bank write bursts
system.mem_ctrls.perBankWrBursts::9            107669                       # Per bank write bursts
system.mem_ctrls.perBankWrBursts::10           109114                       # Per bank write bursts
system.mem_ctrls.perBankWrBursts::11           112302                       # Per bank write bursts
system.mem_ctrls.perBankWrBursts::12           105172                       # Per bank write bursts
system.mem_ctrls.perBankWrBursts::13           110432                       # Per bank write bursts
system.mem_ctrls.perBankWrBursts::14           110041                       # Per bank write bursts
system.mem_ctrls.perBankWrBursts::15           106915                       # Per bank write bursts
system.mem_ctrls.numRdRetry                         0                       # Number of times read queue was full causing retry
system.mem_ctrls.numWrRetry                         0                       # Number of times write queue was full causing retry
system.mem_ctrls.totGap                  1146056349500                       # Total gap between requests
system.mem_ctrls.readPktSize::0                     0                       # Read request sizes (log2)
system.mem_ctrls.readPktSize::1                     0                       # Read request sizes (log2)
system.mem_ctrls.readPktSize::2                     0                       # Read request sizes (log2)
system.mem_ctrls.readPktSize::3                     0                       # Read request sizes (log2)
system.mem_ctrls.readPktSize::4                     0                       # Read request sizes (log2)
system.mem_ctrls.readPktSize::5                     0                       # Read request sizes (log2)
system.mem_ctrls.readPktSize::6               2838773                       # Read request sizes (log2)
system.mem_ctrls.writePktSize::0                    0                       # Write request sizes (log2)
system.mem_ctrls.writePktSize::1                    0                       # Write request sizes (log2)
system.mem_ctrls.writePktSize::2                    0                       # Write request sizes (log2)
system.mem_ctrls.writePktSize::3                    0                       # Write request sizes (log2)
system.mem_ctrls.writePktSize::4                    0                       # Write request sizes (log2)
system.mem_ctrls.writePktSize::5                    0                       # Write request sizes (log2)
system.mem_ctrls.writePktSize::6              1728461                       # Write request sizes (log2)
system.mem_ctrls.rdQLenPdf::0                 2752308                       # What read queue length does an incoming req see
system.mem_ctrls.rdQLenPdf::1                    1228                       # What read queue length does an incoming req see
system.mem_ctrls.rdQLenPdf::2                       0                       # What read queue length does an incoming req see
system.mem_ctrls.rdQLenPdf::3                       0                       # What read queue length does an incoming req see
system.mem_ctrls.rdQLenPdf::4                       0                       # What read queue length does an incoming req see
system.mem_ctrls.rdQLenPdf::5                       0                       # What read queue length does an incoming req see
system.mem_ctrls.rdQLenPdf::6                       0                       # What read queue length does an incoming req see
system.mem_ctrls.rdQLenPdf::7                       0                       # What read queue length does an incoming req see
system.mem_ctrls.rdQLenPdf::8                       0                       # What read queue length does an incoming req see
system.mem_ctrls.rdQLenPdf::9                       0                       # What read queue length does an incoming req see
system.mem_ctrls.rdQLenPdf::10                      0                       # What read queue length does an incoming req see
system.mem_ctrls.rdQLenPdf::11                      0                       # What read queue length does an incoming req see
system.mem_ctrls.rdQLenPdf::12                      0                       # What read queue length does an incoming req see
system.mem_ctrls.rdQLenPdf::13                      0                       # What read queue length does an incoming req see
system.mem_ctrls.rdQLenPdf::14                      0                       # What read queue length does an incoming req see
system.mem_ctrls.rdQLenPdf::15                      0                       # What read queue length does an incoming req see
system.mem_ctrls.rdQLenPdf::16                      0                       # What read queue length does an incoming req see
system.mem_ctrls.rdQLenPdf::17                      0                       # What read queue length does an incoming req see
system.mem_ctrls.rdQLenPdf::18                      0                       # What read queue length does an incoming req see
system.mem_ctrls.rdQLenPdf::19                      0                       # What read queue length does an incoming req see
system.mem_ctrls.rdQLenPdf::20                      0                       # What read queue length does an incoming req see
system.mem_ctrls.rdQLenPdf::21                      0                       # What read queue length does an incoming req see
system.mem_ctrls.rdQLenPdf::22                      0                       # What read queue length does an incoming req see
system.mem_ctrls.rdQLenPdf::23                      0                       # What read queue length does an incoming req see
system.mem_ctrls.rdQLenPdf::24                      0                       # What read queue length does an incoming req see
system.mem_ctrls.rdQLenPdf::25                      0                       # What read queue length does an incoming req see
system.mem_ctrls.rdQLenPdf::26                      0                       # What read queue length does an incoming req see
system.mem_ctrls.rdQLenPdf::27                      0                       # What read queue length does an incoming req see
system.mem_ctrls.rdQLenPdf::28                      0                       # What read queue length does an incoming req see
system.mem_ctrls.rdQLenPdf::29                      0                       # What read queue length does an incoming req see
system.mem_ctrls.rdQLenPdf::30                      0                       # What read queue length does an incoming req see
system.mem_ctrls.rdQLenPdf::31                      0                       # What read queue length does an incoming req see
system.mem_ctrls.wrQLenPdf::0                       0                       # What write queue length does an incoming req see
system.mem_ctrls.wrQLenPdf::1                       0                       # What write queue length does an incoming req see
system.mem_ctrls.wrQLenPdf::2                       0                       # What write queue length does an incoming req see
system.mem_ctrls.wrQLenPdf::3                       0                       # What write queue length does an incoming req see
system.mem_ctrls.wrQLenPdf::4                       0                       # What write queue length does an incoming req see
system.mem_ctrls.wrQLenPdf::5                       0                       # What write queue length does an incoming req see
system.mem_ctrls.wrQLenPdf::6                       0                       # What write queue length does an incoming req see
system.mem_ctrls.wrQLenPdf::7                       0                       # What write queue length does an incoming req see
system.mem_ctrls.wrQLenPdf::8                       0                       # What write queue length does an incoming req see
system.mem_ctrls.wrQLenPdf::9                       0                       # What write queue length does an incoming req see
system.mem_ctrls.wrQLenPdf::10                      0                       # What write queue length does an incoming req see
system.mem_ctrls.wrQLenPdf::11                      0                       # What write queue length does an incoming req see
system.mem_ctrls.wrQLenPdf::12                      0                       # What write queue length does an incoming req see
system.mem_ctrls.wrQLenPdf::13                      0                       # What write queue length does an incoming req see
system.mem_ctrls.wrQLenPdf::14                      0                       # What write queue length does an incoming req see
system.mem_ctrls.wrQLenPdf::15                  32219                       # What write queue length does an incoming req see
system.mem_ctrls.wrQLenPdf::16                  35831                       # What write queue length does an incoming req see
system.mem_ctrls.wrQLenPdf::17                  75209                       # What write queue length does an incoming req see
system.mem_ctrls.wrQLenPdf::18                 100251                       # What write queue length does an incoming req see
system.mem_ctrls.wrQLenPdf::19                 105463                       # What write queue length does an incoming req see
system.mem_ctrls.wrQLenPdf::20                 106202                       # What write queue length does an incoming req see
system.mem_ctrls.wrQLenPdf::21                 106310                       # What write queue length does an incoming req see
system.mem_ctrls.wrQLenPdf::22                 106539                       # What write queue length does an incoming req see
system.mem_ctrls.wrQLenPdf::23                 106727                       # What write queue length does an incoming req see
system.mem_ctrls.wrQLenPdf::24                 106922                       # What write queue length does an incoming req see
system.mem_ctrls.wrQLenPdf::25                 106979                       # What write queue length does an incoming req see
system.mem_ctrls.wrQLenPdf::26                 107564                       # What write queue length does an incoming req see
system.mem_ctrls.wrQLenPdf::27                 107321                       # What write queue length does an incoming req see
system.mem_ctrls.wrQLenPdf::28                 106319                       # What write queue length does an incoming req see
system.mem_ctrls.wrQLenPdf::29                 105675                       # What write queue length does an incoming req see
system.mem_ctrls.wrQLenPdf::30                 104001                       # What write queue length does an incoming req see
system.mem_ctrls.wrQLenPdf::31                 103291                       # What write queue length does an incoming req see
system.mem_ctrls.wrQLenPdf::32                 104142                       # What write queue length does an incoming req see
system.mem_ctrls.wrQLenPdf::33                    395                       # What write queue length does an incoming req see
system.mem_ctrls.wrQLenPdf::34                     86                       # What write queue length does an incoming req see
system.mem_ctrls.wrQLenPdf::35                     36                       # What write queue length does an incoming req see
system.mem_ctrls.wrQLenPdf::36                     19                       # What write queue length does an incoming req see
system.mem_ctrls.wrQLenPdf::37                     10                       # What write queue length does an incoming req see
system.mem_ctrls.wrQLenPdf::38                      8                       # What write queue length does an incoming req see
system.mem_ctrls.wrQLenPdf::39                      8                       # What write queue length does an incoming req see
system.mem_ctrls.wrQLenPdf::40                      4                       # What write queue length does an incoming req see
system.mem_ctrls.wrQLenPdf::41                      3                       # What write queue length does an incoming req see
system.mem_ctrls.wrQLenPdf::42                      1                       # What write queue length does an incoming req see
system.mem_ctrls.wrQLenPdf::43                      0                       # What write queue length does an incoming req see
system.mem_ctrls.wrQLenPdf::44                      0                       # What write queue length does an incoming req see
system.mem_ctrls.wrQLenPdf::45                      0                       # What write queue length does an incoming req see
system.mem_ctrls.wrQLenPdf::46                      0                       # What write queue length does an incoming req see
system.mem_ctrls.wrQLenPdf::47                      0                       # What write queue length does an incoming req see
system.mem_ctrls.wrQLenPdf::48                      0                       # What write queue length does an incoming req see
system.mem_ctrls.wrQLenPdf::49                      0                       # What write queue length does an incoming req see
system.mem_ctrls.wrQLenPdf::50                      0                       # What write queue length does an incoming req see
system.mem_ctrls.wrQLenPdf::51                      0                       # What write queue length does an incoming req see
system.mem_ctrls.wrQLenPdf::52                      0                       # What write queue length does an incoming req see
system.mem_ctrls.wrQLenPdf::53                      0                       # What write queue length does an incoming req see
system.mem_ctrls.wrQLenPdf::54                      0                       # What write queue length does an incoming req see
system.mem_ctrls.wrQLenPdf::55                      0                       # What write queue length does an incoming req see
system.mem_ctrls.wrQLenPdf::56                      0                       # What write queue length does an incoming req see
system.mem_ctrls.wrQLenPdf::57                      0                       # What write queue length does an incoming req see
system.mem_ctrls.wrQLenPdf::58                      0                       # What write queue length does an incoming req see
system.mem_ctrls.wrQLenPdf::59                      0                       # What write queue length does an incoming req see
system.mem_ctrls.wrQLenPdf::60                      0                       # What write queue length does an incoming req see
system.mem_ctrls.wrQLenPdf::61                      0                       # What write queue length does an incoming req see
system.mem_ctrls.wrQLenPdf::62                      0                       # What write queue length does an incoming req see
system.mem_ctrls.wrQLenPdf::63                      0                       # What write queue length does an incoming req see
system.mem_ctrls.bytesPerActivate::samples      2201454                       # Bytes accessed per row activation
system.mem_ctrls.bytesPerActivate::mean    130.272418                       # Bytes accessed per row activation
system.mem_ctrls.bytesPerActivate::gmean    86.919346                       # Bytes accessed per row activation
system.mem_ctrls.bytesPerActivate::stdev   194.324762                       # Bytes accessed per row activation
system.mem_ctrls.bytesPerActivate::0-127      1735396     78.83%     78.83% # Bytes accessed per row activation
system.mem_ctrls.bytesPerActivate::128-255       242937     11.04%     89.86% # Bytes accessed per row activation
system.mem_ctrls.bytesPerActivate::256-383        50591      2.30%     92.16% # Bytes accessed per row activation
system.mem_ctrls.bytesPerActivate::384-511        37762      1.72%     93.88% # Bytes accessed per row activation
system.mem_ctrls.bytesPerActivate::512-639        29732      1.35%     95.23% # Bytes accessed per row activation
system.mem_ctrls.bytesPerActivate::640-767        21328      0.97%     96.20% # Bytes accessed per row activation
system.mem_ctrls.bytesPerActivate::768-895        14887      0.68%     96.87% # Bytes accessed per row activation
system.mem_ctrls.bytesPerActivate::896-1023        10912      0.50%     97.37% # Bytes accessed per row activation
system.mem_ctrls.bytesPerActivate::1024-1151        57909      2.63%    100.00% # Bytes accessed per row activation
system.mem_ctrls.bytesPerActivate::total      2201454                       # Bytes accessed per row activation
system.mem_ctrls.rdPerTurnAround::samples       103118                       # Reads before turning the bus around for writes
system.mem_ctrls.rdPerTurnAround::mean      26.729698                       # Reads before turning the bus around for writes
system.mem_ctrls.rdPerTurnAround::stdev     25.690676                       # Reads before turning the bus around for writes
system.mem_ctrls.rdPerTurnAround::0-127        102099     99.01%     99.01% # Reads before turning the bus around for writes
system.mem_ctrls.rdPerTurnAround::128-255          983      0.95%     99.97% # Reads before turning the bus around for writes
system.mem_ctrls.rdPerTurnAround::256-383           25      0.02%     99.99% # Reads before turning the bus around for writes
system.mem_ctrls.rdPerTurnAround::384-511            4      0.00%     99.99% # Reads before turning the bus around for writes
system.mem_ctrls.rdPerTurnAround::512-639            3      0.00%    100.00% # Reads before turning the bus around for writes
system.mem_ctrls.rdPerTurnAround::1152-1279            1      0.00%    100.00% # Reads before turning the bus around for writes
system.mem_ctrls.rdPerTurnAround::1536-1663            1      0.00%    100.00% # Reads before turning the bus around for writes
system.mem_ctrls.rdPerTurnAround::2304-2431            1      0.00%    100.00% # Reads before turning the bus around for writes
system.mem_ctrls.rdPerTurnAround::2688-2815            1      0.00%    100.00% # Reads before turning the bus around for writes
system.mem_ctrls.rdPerTurnAround::total        103118                       # Reads before turning the bus around for writes
system.mem_ctrls.wrPerTurnAround::samples       103118                       # Writes before turning the bus around for reads
system.mem_ctrls.wrPerTurnAround::mean      16.753127                       # Writes before turning the bus around for reads
system.mem_ctrls.wrPerTurnAround::gmean     16.717001                       # Writes before turning the bus around for reads
system.mem_ctrls.wrPerTurnAround::stdev      1.142089                       # Writes before turning the bus around for reads
system.mem_ctrls.wrPerTurnAround::16            67047     65.02%     65.02% # Writes before turning the bus around for reads
system.mem_ctrls.wrPerTurnAround::17             2491      2.42%     67.44% # Writes before turning the bus around for reads
system.mem_ctrls.wrPerTurnAround::18            28712     27.84%     95.28% # Writes before turning the bus around for reads
system.mem_ctrls.wrPerTurnAround::19             3377      3.27%     98.55% # Writes before turning the bus around for reads
system.mem_ctrls.wrPerTurnAround::20              852      0.83%     99.38% # Writes before turning the bus around for reads
system.mem_ctrls.wrPerTurnAround::21              266      0.26%     99.64% # Writes before turning the bus around for reads
system.mem_ctrls.wrPerTurnAround::22              149      0.14%     99.78% # Writes before turning the bus around for reads
system.mem_ctrls.wrPerTurnAround::23               86      0.08%     99.87% # Writes before turning the bus around for reads
system.mem_ctrls.wrPerTurnAround::24               51      0.05%     99.92% # Writes before turning the bus around for reads
system.mem_ctrls.wrPerTurnAround::25               29      0.03%     99.94% # Writes before turning the bus around for reads
system.mem_ctrls.wrPerTurnAround::26               15      0.01%     99.96% # Writes before turning the bus around for reads
system.mem_ctrls.wrPerTurnAround::27               21      0.02%     99.98% # Writes before turning the bus around for reads
system.mem_ctrls.wrPerTurnAround::28                8      0.01%     99.99% # Writes before turning the bus around for reads
system.mem_ctrls.wrPerTurnAround::29                6      0.01%     99.99% # Writes before turning the bus around for reads
system.mem_ctrls.wrPerTurnAround::30                1      0.00%     99.99% # Writes before turning the bus around for reads
system.mem_ctrls.wrPerTurnAround::31                2      0.00%    100.00% # Writes before turning the bus around for reads
system.mem_ctrls.wrPerTurnAround::34                3      0.00%    100.00% # Writes before turning the bus around for reads
system.mem_ctrls.wrPerTurnAround::35                1      0.00%    100.00% # Writes before turning the bus around for reads
system.mem_ctrls.wrPerTurnAround::56                1      0.00%    100.00% # Writes before turning the bus around for reads
system.mem_ctrls.wrPerTurnAround::total        103118                       # Writes before turning the bus around for reads
system.mem_ctrls.totQLat                  49158912742                       # Total ticks spent queuing
system.mem_ctrls.totMemAccLat            100787712742                       # Total ticks spent from burst creation until serviced by the DRAM
system.mem_ctrls.totBusLat                13767680000                       # Total ticks spent in databus transfers
system.mem_ctrls.avgQLat                     17853.01                       # Average queueing delay per DRAM burst
system.mem_ctrls.avgBusLat                    5000.00                       # Average bus latency per DRAM burst
system.mem_ctrls.avgMemAccLat                36603.01                       # Average memory access latency per DRAM burst
system.mem_ctrls.avgRdBW                       153.77                       # Average DRAM read bandwidth in MiByte/s
system.mem_ctrls.avgWrBW                        96.47                       # Average achieved write bandwidth in MiByte/s
system.mem_ctrls.avgRdBWSys                    158.53                       # Average system read bandwidth in MiByte/s
system.mem_ctrls.avgWrBWSys                     96.52                       # Average system write bandwidth in MiByte/s
system.mem_ctrls.peakBW                      12800.00                       # Theoretical peak bandwidth in MiByte/s
system.mem_ctrls.busUtil                         1.96                       # Data bus utilization in percentage
system.mem_ctrls.busUtilRead                     1.20                       # Data bus utilization in percentage for reads
system.mem_ctrls.busUtilWrite                    0.75                       # Data bus utilization in percentage for writes
system.mem_ctrls.avgRdQLen                       1.00                       # Average read queue length when enqueuing
system.mem_ctrls.avgWrQLen                      24.73                       # Average write queue length when enqueuing
system.mem_ctrls.readRowHits                  1554126                       # Number of row buffer hits during reads
system.mem_ctrls.writeRowHits                  725496                       # Number of row buffer hits during writes
system.mem_ctrls.readRowHitRate                 56.44                       # Row buffer hit rate for reads
system.mem_ctrls.writeRowHitRate                42.00                       # Row buffer hit rate for writes
system.mem_ctrls.avgGap                     250930.07                       # Average gap between requests
system.mem_ctrls.pageHitRate                    50.87                       # Row buffer hit rate, read and write combined
system.mem_ctrls_0.actEnergy               8329071240                       # Energy for activate commands per rank (pJ)
system.mem_ctrls_0.preEnergy               4544632125                       # Energy for precharge commands per rank (pJ)
system.mem_ctrls_0.readEnergy             10825768200                       # Energy for read commands per rank (pJ)
system.mem_ctrls_0.writeEnergy             5577510960                       # Energy for write commands per rank (pJ)
system.mem_ctrls_0.refreshEnergy          75279594000                       # Energy for refresh commands per rank (pJ)
system.mem_ctrls_0.actBackEnergy         254343974715                       # Energy for active background per rank (pJ)
system.mem_ctrls_0.preBackEnergy         468427200000                       # Energy for precharge background per rank (pJ)
system.mem_ctrls_0.totalEnergy           827327751240                       # Total energy per rank (pJ)
system.mem_ctrls_0.averagePower            717.817564                       # Core power per rank (mW)
system.mem_ctrls_0.memoryStateTime::IDLE 773353677250                       # Time in different power states
system.mem_ctrls_0.memoryStateTime::REF   38269400000                       # Time in different power states
system.mem_ctrls_0.memoryStateTime::PRE_PDN            0                       # Time in different power states
system.mem_ctrls_0.memoryStateTime::ACT  334430533750                       # Time in different power states
system.mem_ctrls_0.memoryStateTime::ACT_PDN            0                       # Time in different power states
system.mem_ctrls_1.actEnergy               8351093520                       # Energy for activate commands per rank (pJ)
system.mem_ctrls_1.preEnergy               4556648250                       # Energy for precharge commands per rank (pJ)
system.mem_ctrls_1.readEnergy             10848481800                       # Energy for read commands per rank (pJ)
system.mem_ctrls_1.writeEnergy             5617356480                       # Energy for write commands per rank (pJ)
system.mem_ctrls_1.refreshEnergy          75279594000                       # Energy for refresh commands per rank (pJ)
system.mem_ctrls_1.actBackEnergy         253819214190                       # Energy for active background per rank (pJ)
system.mem_ctrls_1.preBackEnergy         468887516250                       # Energy for precharge background per rank (pJ)
system.mem_ctrls_1.totalEnergy           827359904490                       # Total energy per rank (pJ)
system.mem_ctrls_1.averagePower            717.845461                       # Core power per rank (mW)
system.mem_ctrls_1.memoryStateTime::IDLE 774244524750                       # Time in different power states
system.mem_ctrls_1.memoryStateTime::REF   38269400000                       # Time in different power states
system.mem_ctrls_1.memoryStateTime::PRE_PDN            0                       # Time in different power states
system.mem_ctrls_1.memoryStateTime::ACT  333545287750                       # Time in different power states
system.mem_ctrls_1.memoryStateTime::ACT_PDN            0                       # Time in different power states
system.cpu_voltage_domain.voltage                   1                       # Voltage in Volts
system.cpu_clk_domain.clock                       500                       # Clock period in ticks
system.cpu0.apic_clk_domain.clock                8000                       # Clock period in ticks
system.cpu0.numCycles                      2289947779                       # number of cpu cycles simulated
system.cpu0.numWorkItemsStarted                     0                       # number of work items this cpu started
system.cpu0.numWorkItemsCompleted                   0                       # number of work items this cpu completed
system.cpu0.kern.inst.arm                           0                       # number of arm instructions executed
system.cpu0.kern.inst.quiesce                       0                       # number of quiesce instructions executed
system.cpu0.committedInsts                    2984951                       # Number of instructions committed
system.cpu0.committedOps                      5955212                       # Number of ops (including micro ops) committed
system.cpu0.num_int_alu_accesses              5852081                       # Number of integer alu accesses
system.cpu0.num_fp_alu_accesses                  1826                       # Number of float alu accesses
system.cpu0.num_func_calls                     156422                       # number of times a function call or return occured
system.cpu0.num_conditional_control_insts       494866                       # number of instructions that are conditional controls
system.cpu0.num_int_insts                     5852081                       # number of integer instructions
system.cpu0.num_fp_insts                         1826                       # number of float instructions
system.cpu0.num_int_register_reads           11654674                       # number of times the integer registers were read
system.cpu0.num_int_register_writes           4753940                       # number of times the integer registers were written
system.cpu0.num_fp_register_reads                3068                       # number of times the floating registers were read
system.cpu0.num_fp_register_writes               1448                       # number of times the floating registers were written
system.cpu0.num_cc_register_reads             3725753                       # number of times the CC registers were read
system.cpu0.num_cc_register_writes            2042046                       # number of times the CC registers were written
system.cpu0.num_mem_refs                      1342145                       # number of memory refs
system.cpu0.num_load_insts                     866276                       # Number of load instructions
system.cpu0.num_store_insts                    475869                       # Number of store instructions
system.cpu0.num_idle_cycles              2277464001.891961                       # Number of idle cycles
system.cpu0.num_busy_cycles              12483777.108039                       # Number of busy cycles
system.cpu0.not_idle_fraction                0.005452                       # Percentage of non-idle cycles
system.cpu0.idle_fraction                    0.994548                       # Percentage of idle cycles
system.cpu0.Branches                           679530                       # Number of branches fetched
system.cpu0.op_class::No_OpClass                38170      0.64%      0.64% # Class of executed instruction
system.cpu0.op_class::IntAlu                  4557470     76.53%     77.17% # Class of executed instruction
system.cpu0.op_class::IntMult                    4746      0.08%     77.25% # Class of executed instruction
system.cpu0.op_class::IntDiv                    11395      0.19%     77.44% # Class of executed instruction
system.cpu0.op_class::FloatAdd                   1376      0.02%     77.46% # Class of executed instruction
system.cpu0.op_class::FloatCmp                      0      0.00%     77.46% # Class of executed instruction
system.cpu0.op_class::FloatCvt                      0      0.00%     77.46% # Class of executed instruction
system.cpu0.op_class::FloatMult                     0      0.00%     77.46% # Class of executed instruction
system.cpu0.op_class::FloatDiv                      0      0.00%     77.46% # Class of executed instruction
system.cpu0.op_class::FloatSqrt                     0      0.00%     77.46% # Class of executed instruction
system.cpu0.op_class::SimdAdd                       0      0.00%     77.46% # Class of executed instruction
system.cpu0.op_class::SimdAddAcc                    0      0.00%     77.46% # Class of executed instruction
system.cpu0.op_class::SimdAlu                       0      0.00%     77.46% # Class of executed instruction
system.cpu0.op_class::SimdCmp                       0      0.00%     77.46% # Class of executed instruction
system.cpu0.op_class::SimdCvt                       0      0.00%     77.46% # Class of executed instruction
system.cpu0.op_class::SimdMisc                      0      0.00%     77.46% # Class of executed instruction
system.cpu0.op_class::SimdMult                      0      0.00%     77.46% # Class of executed instruction
system.cpu0.op_class::SimdMultAcc                   0      0.00%     77.46% # Class of executed instruction
system.cpu0.op_class::SimdShift                     0      0.00%     77.46% # Class of executed instruction
system.cpu0.op_class::SimdShiftAcc                  0      0.00%     77.46% # Class of executed instruction
system.cpu0.op_class::SimdSqrt                      0      0.00%     77.46% # Class of executed instruction
system.cpu0.op_class::SimdFloatAdd                  0      0.00%     77.46% # Class of executed instruction
system.cpu0.op_class::SimdFloatAlu                  0      0.00%     77.46% # Class of executed instruction
system.cpu0.op_class::SimdFloatCmp                  0      0.00%     77.46% # Class of executed instruction
system.cpu0.op_class::SimdFloatCvt                  0      0.00%     77.46% # Class of executed instruction
system.cpu0.op_class::SimdFloatDiv                  0      0.00%     77.46% # Class of executed instruction
system.cpu0.op_class::SimdFloatMisc                 0      0.00%     77.46% # Class of executed instruction
system.cpu0.op_class::SimdFloatMult                 0      0.00%     77.46% # Class of executed instruction
system.cpu0.op_class::SimdFloatMultAcc              0      0.00%     77.46% # Class of executed instruction
system.cpu0.op_class::SimdFloatSqrt                 0      0.00%     77.46% # Class of executed instruction
system.cpu0.op_class::MemRead                  866276     14.55%     92.01% # Class of executed instruction
system.cpu0.op_class::MemWrite                 475869      7.99%    100.00% # Class of executed instruction
system.cpu0.op_class::IprAccess                     0      0.00%    100.00% # Class of executed instruction
system.cpu0.op_class::InstPrefetch                  0      0.00%    100.00% # Class of executed instruction
system.cpu0.op_class::total                   5955302                       # Class of executed instruction
system.cpu1.apic_clk_domain.clock                8000                       # Clock period in ticks
system.cpu1.numCycles                      2296004371                       # number of cpu cycles simulated
system.cpu1.numWorkItemsStarted                     0                       # number of work items this cpu started
system.cpu1.numWorkItemsCompleted                   0                       # number of work items this cpu completed
system.cpu1.kern.inst.arm                           0                       # number of arm instructions executed
system.cpu1.kern.inst.quiesce                       0                       # number of quiesce instructions executed
system.cpu1.committedInsts                     844241                       # Number of instructions committed
system.cpu1.committedOps                      1813631                       # Number of ops (including micro ops) committed
system.cpu1.num_int_alu_accesses              1775266                       # Number of integer alu accesses
system.cpu1.num_fp_alu_accesses                    39                       # Number of float alu accesses
system.cpu1.num_func_calls                      52860                       # number of times a function call or return occured
system.cpu1.num_conditional_control_insts       120985                       # number of instructions that are conditional controls
system.cpu1.num_int_insts                     1775266                       # number of integer instructions
system.cpu1.num_fp_insts                           39                       # number of float instructions
system.cpu1.num_int_register_reads            3618269                       # number of times the integer registers were read
system.cpu1.num_int_register_writes           1464695                       # number of times the integer registers were written
system.cpu1.num_fp_register_reads                  63                       # number of times the floating registers were read
system.cpu1.num_fp_register_writes                 31                       # number of times the floating registers were written
system.cpu1.num_cc_register_reads              959484                       # number of times the CC registers were read
system.cpu1.num_cc_register_writes             525737                       # number of times the CC registers were written
system.cpu1.num_mem_refs                       439109                       # number of memory refs
system.cpu1.num_load_insts                     272753                       # Number of load instructions
system.cpu1.num_store_insts                    166356                       # Number of store instructions
system.cpu1.num_idle_cycles              2292158408.403975                       # Number of idle cycles
system.cpu1.num_busy_cycles              3845962.596025                       # Number of busy cycles
system.cpu1.not_idle_fraction                0.001675                       # Percentage of non-idle cycles
system.cpu1.idle_fraction                    0.998325                       # Percentage of idle cycles
system.cpu1.Branches                           190753                       # Number of branches fetched
system.cpu1.op_class::No_OpClass                29013      1.60%      1.60% # Class of executed instruction
system.cpu1.op_class::IntAlu                  1332272     73.46%     75.06% # Class of executed instruction
system.cpu1.op_class::IntMult                    3458      0.19%     75.25% # Class of executed instruction
system.cpu1.op_class::IntDiv                     9771      0.54%     75.79% # Class of executed instruction
system.cpu1.op_class::FloatAdd                     30      0.00%     75.79% # Class of executed instruction
system.cpu1.op_class::FloatCmp                      0      0.00%     75.79% # Class of executed instruction
system.cpu1.op_class::FloatCvt                      0      0.00%     75.79% # Class of executed instruction
system.cpu1.op_class::FloatMult                     0      0.00%     75.79% # Class of executed instruction
system.cpu1.op_class::FloatDiv                      0      0.00%     75.79% # Class of executed instruction
system.cpu1.op_class::FloatSqrt                     0      0.00%     75.79% # Class of executed instruction
system.cpu1.op_class::SimdAdd                       0      0.00%     75.79% # Class of executed instruction
system.cpu1.op_class::SimdAddAcc                    0      0.00%     75.79% # Class of executed instruction
system.cpu1.op_class::SimdAlu                       0      0.00%     75.79% # Class of executed instruction
system.cpu1.op_class::SimdCmp                       0      0.00%     75.79% # Class of executed instruction
system.cpu1.op_class::SimdCvt                       0      0.00%     75.79% # Class of executed instruction
system.cpu1.op_class::SimdMisc                      0      0.00%     75.79% # Class of executed instruction
system.cpu1.op_class::SimdMult                      0      0.00%     75.79% # Class of executed instruction
system.cpu1.op_class::SimdMultAcc                   0      0.00%     75.79% # Class of executed instruction
system.cpu1.op_class::SimdShift                     0      0.00%     75.79% # Class of executed instruction
system.cpu1.op_class::SimdShiftAcc                  0      0.00%     75.79% # Class of executed instruction
system.cpu1.op_class::SimdSqrt                      0      0.00%     75.79% # Class of executed instruction
system.cpu1.op_class::SimdFloatAdd                  0      0.00%     75.79% # Class of executed instruction
system.cpu1.op_class::SimdFloatAlu                  0      0.00%     75.79% # Class of executed instruction
system.cpu1.op_class::SimdFloatCmp                  0      0.00%     75.79% # Class of executed instruction
system.cpu1.op_class::SimdFloatCvt                  0      0.00%     75.79% # Class of executed instruction
system.cpu1.op_class::SimdFloatDiv                  0      0.00%     75.79% # Class of executed instruction
system.cpu1.op_class::SimdFloatMisc                 0      0.00%     75.79% # Class of executed instruction
system.cpu1.op_class::SimdFloatMult                 0      0.00%     75.79% # Class of executed instruction
system.cpu1.op_class::SimdFloatMultAcc              0      0.00%     75.79% # Class of executed instruction
system.cpu1.op_class::SimdFloatSqrt                 0      0.00%     75.79% # Class of executed instruction
system.cpu1.op_class::MemRead                  272753     15.04%     90.83% # Class of executed instruction
system.cpu1.op_class::MemWrite                 166356      9.17%    100.00% # Class of executed instruction
system.cpu1.op_class::IprAccess                     0      0.00%    100.00% # Class of executed instruction
system.cpu1.op_class::InstPrefetch                  0      0.00%    100.00% # Class of executed instruction
system.cpu1.op_class::total                   1813653                       # Class of executed instruction
system.cpu2.apic_clk_domain.clock                8000                       # Clock period in ticks
system.cpu2.numCycles                      2294089208                       # number of cpu cycles simulated
system.cpu2.numWorkItemsStarted                     0                       # number of work items this cpu started
system.cpu2.numWorkItemsCompleted                   0                       # number of work items this cpu completed
system.cpu2.kern.inst.arm                           0                       # number of arm instructions executed
system.cpu2.kern.inst.quiesce                       0                       # number of quiesce instructions executed
system.cpu2.committedInsts                  533851487                       # Number of instructions committed
system.cpu2.committedOps                    709168813                       # Number of ops (including micro ops) committed
system.cpu2.num_int_alu_accesses            508791773                       # Number of integer alu accesses
system.cpu2.num_fp_alu_accesses             331101068                       # Number of float alu accesses
system.cpu2.num_func_calls                     432371                       # number of times a function call or return occured
system.cpu2.num_conditional_control_insts     31466604                       # number of instructions that are conditional controls
system.cpu2.num_int_insts                   508791773                       # number of integer instructions
system.cpu2.num_fp_insts                    331101068                       # number of float instructions
system.cpu2.num_int_register_reads         1070093402                       # number of times the integer registers were read
system.cpu2.num_int_register_writes         339832843                       # number of times the integer registers were written
system.cpu2.num_fp_register_reads           564014582                       # number of times the floating registers were read
system.cpu2.num_fp_register_writes          276695748                       # number of times the floating registers were written
system.cpu2.num_cc_register_reads           220283807                       # number of times the CC registers were read
system.cpu2.num_cc_register_writes          241356826                       # number of times the CC registers were written
system.cpu2.num_mem_refs                    152836031                       # number of memory refs
system.cpu2.num_load_insts                   94759458                       # Number of load instructions
system.cpu2.num_store_insts                  58076573                       # Number of store instructions
system.cpu2.num_idle_cycles              9048104.023015                       # Number of idle cycles
system.cpu2.num_busy_cycles              2285041103.976985                       # Number of busy cycles
system.cpu2.not_idle_fraction                0.996056                       # Percentage of non-idle cycles
system.cpu2.idle_fraction                    0.003944                       # Percentage of idle cycles
system.cpu2.Branches                         33878147                       # Number of branches fetched
system.cpu2.op_class::No_OpClass               955127      0.13%      0.13% # Class of executed instruction
system.cpu2.op_class::IntAlu                444066327     62.62%     62.75% # Class of executed instruction
system.cpu2.op_class::IntMult                   24431      0.00%     62.76% # Class of executed instruction
system.cpu2.op_class::IntDiv                   145468      0.02%     62.78% # Class of executed instruction
system.cpu2.op_class::FloatAdd              111149730     15.67%     78.45% # Class of executed instruction
system.cpu2.op_class::FloatCmp                      0      0.00%     78.45% # Class of executed instruction
system.cpu2.op_class::FloatCvt                      0      0.00%     78.45% # Class of executed instruction
system.cpu2.op_class::FloatMult                     0      0.00%     78.45% # Class of executed instruction
system.cpu2.op_class::FloatDiv                      0      0.00%     78.45% # Class of executed instruction
system.cpu2.op_class::FloatSqrt                     0      0.00%     78.45% # Class of executed instruction
system.cpu2.op_class::SimdAdd                       0      0.00%     78.45% # Class of executed instruction
system.cpu2.op_class::SimdAddAcc                    0      0.00%     78.45% # Class of executed instruction
system.cpu2.op_class::SimdAlu                       0      0.00%     78.45% # Class of executed instruction
system.cpu2.op_class::SimdCmp                       0      0.00%     78.45% # Class of executed instruction
system.cpu2.op_class::SimdCvt                       0      0.00%     78.45% # Class of executed instruction
system.cpu2.op_class::SimdMisc                      0      0.00%     78.45% # Class of executed instruction
system.cpu2.op_class::SimdMult                      0      0.00%     78.45% # Class of executed instruction
system.cpu2.op_class::SimdMultAcc                   0      0.00%     78.45% # Class of executed instruction
system.cpu2.op_class::SimdShift                     0      0.00%     78.45% # Class of executed instruction
system.cpu2.op_class::SimdShiftAcc                  0      0.00%     78.45% # Class of executed instruction
system.cpu2.op_class::SimdSqrt                      0      0.00%     78.45% # Class of executed instruction
system.cpu2.op_class::SimdFloatAdd                  0      0.00%     78.45% # Class of executed instruction
system.cpu2.op_class::SimdFloatAlu                  0      0.00%     78.45% # Class of executed instruction
system.cpu2.op_class::SimdFloatCmp                  0      0.00%     78.45% # Class of executed instruction
system.cpu2.op_class::SimdFloatCvt                  0      0.00%     78.45% # Class of executed instruction
system.cpu2.op_class::SimdFloatDiv                  0      0.00%     78.45% # Class of executed instruction
system.cpu2.op_class::SimdFloatMisc                 0      0.00%     78.45% # Class of executed instruction
system.cpu2.op_class::SimdFloatMult                 0      0.00%     78.45% # Class of executed instruction
system.cpu2.op_class::SimdFloatMultAcc              0      0.00%     78.45% # Class of executed instruction
system.cpu2.op_class::SimdFloatSqrt                 0      0.00%     78.45% # Class of executed instruction
system.cpu2.op_class::MemRead                94759458     13.36%     91.81% # Class of executed instruction
system.cpu2.op_class::MemWrite               58076573      8.19%    100.00% # Class of executed instruction
system.cpu2.op_class::IprAccess                     0      0.00%    100.00% # Class of executed instruction
system.cpu2.op_class::InstPrefetch                  0      0.00%    100.00% # Class of executed instruction
system.cpu2.op_class::total                 709177114                       # Class of executed instruction
system.cpu3.apic_clk_domain.clock                8000                       # Clock period in ticks
system.cpu3.numCycles                      2287454524                       # number of cpu cycles simulated
system.cpu3.numWorkItemsStarted                     0                       # number of work items this cpu started
system.cpu3.numWorkItemsCompleted                   0                       # number of work items this cpu completed
system.cpu3.kern.inst.arm                           0                       # number of arm instructions executed
system.cpu3.kern.inst.quiesce                       0                       # number of quiesce instructions executed
system.cpu3.committedInsts                     794281                       # Number of instructions committed
system.cpu3.committedOps                      1705801                       # Number of ops (including micro ops) committed
system.cpu3.num_int_alu_accesses              1666563                       # Number of integer alu accesses
system.cpu3.num_fp_alu_accesses                     0                       # Number of float alu accesses
system.cpu3.num_func_calls                      47328                       # number of times a function call or return occured
system.cpu3.num_conditional_control_insts       120011                       # number of instructions that are conditional controls
system.cpu3.num_int_insts                     1666563                       # number of integer instructions
system.cpu3.num_fp_insts                            0                       # number of float instructions
system.cpu3.num_int_register_reads            3381842                       # number of times the integer registers were read
system.cpu3.num_int_register_writes           1378830                       # number of times the integer registers were written
system.cpu3.num_fp_register_reads                   0                       # number of times the floating registers were read
system.cpu3.num_fp_register_writes                  0                       # number of times the floating registers were written
system.cpu3.num_cc_register_reads              936122                       # number of times the CC registers were read
system.cpu3.num_cc_register_writes             499530                       # number of times the CC registers were written
system.cpu3.num_mem_refs                       407950                       # number of memory refs
system.cpu3.num_load_insts                     256215                       # Number of load instructions
system.cpu3.num_store_insts                    151735                       # Number of store instructions
system.cpu3.num_idle_cycles              2283972496.003674                       # Number of idle cycles
system.cpu3.num_busy_cycles              3482027.996327                       # Number of busy cycles
system.cpu3.not_idle_fraction                0.001522                       # Percentage of non-idle cycles
system.cpu3.idle_fraction                    0.998478                       # Percentage of idle cycles
system.cpu3.Branches                           182492                       # Number of branches fetched
system.cpu3.op_class::No_OpClass                28231      1.65%      1.65% # Class of executed instruction
system.cpu3.op_class::IntAlu                  1255661     73.61%     75.27% # Class of executed instruction
system.cpu3.op_class::IntMult                    4239      0.25%     75.51% # Class of executed instruction
system.cpu3.op_class::IntDiv                     9723      0.57%     76.08% # Class of executed instruction
system.cpu3.op_class::FloatAdd                      0      0.00%     76.08% # Class of executed instruction
system.cpu3.op_class::FloatCmp                      0      0.00%     76.08% # Class of executed instruction
system.cpu3.op_class::FloatCvt                      0      0.00%     76.08% # Class of executed instruction
system.cpu3.op_class::FloatMult                     0      0.00%     76.08% # Class of executed instruction
system.cpu3.op_class::FloatDiv                      0      0.00%     76.08% # Class of executed instruction
system.cpu3.op_class::FloatSqrt                     0      0.00%     76.08% # Class of executed instruction
system.cpu3.op_class::SimdAdd                       0      0.00%     76.08% # Class of executed instruction
system.cpu3.op_class::SimdAddAcc                    0      0.00%     76.08% # Class of executed instruction
system.cpu3.op_class::SimdAlu                       0      0.00%     76.08% # Class of executed instruction
system.cpu3.op_class::SimdCmp                       0      0.00%     76.08% # Class of executed instruction
system.cpu3.op_class::SimdCvt                       0      0.00%     76.08% # Class of executed instruction
system.cpu3.op_class::SimdMisc                      0      0.00%     76.08% # Class of executed instruction
system.cpu3.op_class::SimdMult                      0      0.00%     76.08% # Class of executed instruction
system.cpu3.op_class::SimdMultAcc                   0      0.00%     76.08% # Class of executed instruction
system.cpu3.op_class::SimdShift                     0      0.00%     76.08% # Class of executed instruction
system.cpu3.op_class::SimdShiftAcc                  0      0.00%     76.08% # Class of executed instruction
system.cpu3.op_class::SimdSqrt                      0      0.00%     76.08% # Class of executed instruction
system.cpu3.op_class::SimdFloatAdd                  0      0.00%     76.08% # Class of executed instruction
system.cpu3.op_class::SimdFloatAlu                  0      0.00%     76.08% # Class of executed instruction
system.cpu3.op_class::SimdFloatCmp                  0      0.00%     76.08% # Class of executed instruction
system.cpu3.op_class::SimdFloatCvt                  0      0.00%     76.08% # Class of executed instruction
system.cpu3.op_class::SimdFloatDiv                  0      0.00%     76.08% # Class of executed instruction
system.cpu3.op_class::SimdFloatMisc                 0      0.00%     76.08% # Class of executed instruction
system.cpu3.op_class::SimdFloatMult                 0      0.00%     76.08% # Class of executed instruction
system.cpu3.op_class::SimdFloatMultAcc              0      0.00%     76.08% # Class of executed instruction
system.cpu3.op_class::SimdFloatSqrt                 0      0.00%     76.08% # Class of executed instruction
system.cpu3.op_class::MemRead                  256215     15.02%     91.10% # Class of executed instruction
system.cpu3.op_class::MemWrite                 151735      8.90%    100.00% # Class of executed instruction
system.cpu3.op_class::IprAccess                     0      0.00%    100.00% # Class of executed instruction
system.cpu3.op_class::InstPrefetch                  0      0.00%    100.00% # Class of executed instruction
system.cpu3.op_class::total                   1705804                       # Class of executed instruction
system.iobus.trans_dist::ReadReq                  706                       # Transaction distribution
system.iobus.trans_dist::ReadResp                 706                       # Transaction distribution
system.iobus.trans_dist::WriteReq                1408                       # Transaction distribution
system.iobus.trans_dist::WriteResp               1408                       # Transaction distribution
system.iobus.trans_dist::MessageReq                10                       # Transaction distribution
system.iobus.trans_dist::MessageResp               10                       # Transaction distribution
system.iobus.pkt_count_system.pc.south_bridge.io_apic.int_master::system.ruby.l1_cntrl1.sequencer.pio-slave-port            2                       # Packet count per connected master and slave (bytes)
system.iobus.pkt_count_system.pc.south_bridge.io_apic.int_master::system.ruby.l1_cntrl2.sequencer.pio-slave-port            2                       # Packet count per connected master and slave (bytes)
system.iobus.pkt_count_system.pc.south_bridge.io_apic.int_master::total            4                       # Packet count per connected master and slave (bytes)
system.iobus.pkt_count_system.ruby.l1_cntrl0.sequencer.mem-master-port::system.ruby.l1_cntrl0.sequencer.pio-slave-port          592                       # Packet count per connected master and slave (bytes)
system.iobus.pkt_count_system.ruby.l1_cntrl0.sequencer.mem-master-port::system.ruby.l1_cntrl1.sequencer.pio-slave-port            2                       # Packet count per connected master and slave (bytes)
system.iobus.pkt_count_system.ruby.l1_cntrl0.sequencer.mem-master-port::system.ruby.l1_cntrl2.sequencer.pio-slave-port            2                       # Packet count per connected master and slave (bytes)
system.iobus.pkt_count_system.ruby.l1_cntrl0.sequencer.mem-master-port::system.ruby.l1_cntrl3.sequencer.pio-slave-port            2                       # Packet count per connected master and slave (bytes)
system.iobus.pkt_count_system.ruby.l1_cntrl0.sequencer.mem-master-port::total          598                       # Packet count per connected master and slave (bytes)
system.iobus.pkt_count_system.ruby.l1_cntrl1.sequencer.mem-master-port::system.pc.south_bridge.io_apic.pio            6                       # Packet count per connected master and slave (bytes)
system.iobus.pkt_count_system.ruby.l1_cntrl1.sequencer.mem-master-port::system.pc.com_1.pio         1854                       # Packet count per connected master and slave (bytes)
system.iobus.pkt_count_system.ruby.l1_cntrl1.sequencer.mem-master-port::system.ruby.l1_cntrl1.sequencer.pio-slave-port          586                       # Packet count per connected master and slave (bytes)
system.iobus.pkt_count_system.ruby.l1_cntrl1.sequencer.mem-master-port::system.ruby.l1_cntrl2.sequencer.pio-slave-port            2                       # Packet count per connected master and slave (bytes)
system.iobus.pkt_count_system.ruby.l1_cntrl1.sequencer.mem-master-port::total         2448                       # Packet count per connected master and slave (bytes)
system.iobus.pkt_count_system.ruby.l1_cntrl2.sequencer.mem-master-port::system.pc.south_bridge.io_apic.pio            8                       # Packet count per connected master and slave (bytes)
system.iobus.pkt_count_system.ruby.l1_cntrl2.sequencer.mem-master-port::system.ruby.l1_cntrl1.sequencer.pio-slave-port            2                       # Packet count per connected master and slave (bytes)
system.iobus.pkt_count_system.ruby.l1_cntrl2.sequencer.mem-master-port::system.ruby.l1_cntrl2.sequencer.pio-slave-port          596                       # Packet count per connected master and slave (bytes)
system.iobus.pkt_count_system.ruby.l1_cntrl2.sequencer.mem-master-port::system.ruby.l1_cntrl3.sequencer.pio-slave-port            4                       # Packet count per connected master and slave (bytes)
system.iobus.pkt_count_system.ruby.l1_cntrl2.sequencer.mem-master-port::total          610                       # Packet count per connected master and slave (bytes)
system.iobus.pkt_count_system.ruby.l1_cntrl3.sequencer.mem-master-port::system.pc.com_1.pio            2                       # Packet count per connected master and slave (bytes)
system.iobus.pkt_count_system.ruby.l1_cntrl3.sequencer.mem-master-port::system.ruby.l1_cntrl0.sequencer.pio-slave-port            2                       # Packet count per connected master and slave (bytes)
system.iobus.pkt_count_system.ruby.l1_cntrl3.sequencer.mem-master-port::system.ruby.l1_cntrl3.sequencer.pio-slave-port          584                       # Packet count per connected master and slave (bytes)
system.iobus.pkt_count_system.ruby.l1_cntrl3.sequencer.mem-master-port::total          588                       # Packet count per connected master and slave (bytes)
system.iobus.pkt_count::total                    4248                       # Packet count per connected master and slave (bytes)
system.iobus.pkt_size_system.pc.south_bridge.io_apic.int_master::system.ruby.l1_cntrl1.sequencer.pio-slave-port            4                       # Cumulative packet size per connected master and slave (bytes)
system.iobus.pkt_size_system.pc.south_bridge.io_apic.int_master::system.ruby.l1_cntrl2.sequencer.pio-slave-port            4                       # Cumulative packet size per connected master and slave (bytes)
system.iobus.pkt_size_system.pc.south_bridge.io_apic.int_master::total            8                       # Cumulative packet size per connected master and slave (bytes)
system.iobus.pkt_size_system.ruby.l1_cntrl0.sequencer.mem-master-port::system.ruby.l1_cntrl0.sequencer.pio-slave-port         1184                       # Cumulative packet size per connected master and slave (bytes)
system.iobus.pkt_size_system.ruby.l1_cntrl0.sequencer.mem-master-port::system.ruby.l1_cntrl1.sequencer.pio-slave-port            4                       # Cumulative packet size per connected master and slave (bytes)
system.iobus.pkt_size_system.ruby.l1_cntrl0.sequencer.mem-master-port::system.ruby.l1_cntrl2.sequencer.pio-slave-port            4                       # Cumulative packet size per connected master and slave (bytes)
system.iobus.pkt_size_system.ruby.l1_cntrl0.sequencer.mem-master-port::system.ruby.l1_cntrl3.sequencer.pio-slave-port            4                       # Cumulative packet size per connected master and slave (bytes)
system.iobus.pkt_size_system.ruby.l1_cntrl0.sequencer.mem-master-port::total         1196                       # Cumulative packet size per connected master and slave (bytes)
system.iobus.pkt_size_system.ruby.l1_cntrl1.sequencer.mem-master-port::system.pc.south_bridge.io_apic.pio           12                       # Cumulative packet size per connected master and slave (bytes)
system.iobus.pkt_size_system.ruby.l1_cntrl1.sequencer.mem-master-port::system.pc.com_1.pio          927                       # Cumulative packet size per connected master and slave (bytes)
system.iobus.pkt_size_system.ruby.l1_cntrl1.sequencer.mem-master-port::system.ruby.l1_cntrl1.sequencer.pio-slave-port         1172                       # Cumulative packet size per connected master and slave (bytes)
system.iobus.pkt_size_system.ruby.l1_cntrl1.sequencer.mem-master-port::system.ruby.l1_cntrl2.sequencer.pio-slave-port            4                       # Cumulative packet size per connected master and slave (bytes)
system.iobus.pkt_size_system.ruby.l1_cntrl1.sequencer.mem-master-port::total         2115                       # Cumulative packet size per connected master and slave (bytes)
system.iobus.pkt_size_system.ruby.l1_cntrl2.sequencer.mem-master-port::system.pc.south_bridge.io_apic.pio           16                       # Cumulative packet size per connected master and slave (bytes)
system.iobus.pkt_size_system.ruby.l1_cntrl2.sequencer.mem-master-port::system.ruby.l1_cntrl1.sequencer.pio-slave-port            4                       # Cumulative packet size per connected master and slave (bytes)
system.iobus.pkt_size_system.ruby.l1_cntrl2.sequencer.mem-master-port::system.ruby.l1_cntrl2.sequencer.pio-slave-port         1192                       # Cumulative packet size per connected master and slave (bytes)
system.iobus.pkt_size_system.ruby.l1_cntrl2.sequencer.mem-master-port::system.ruby.l1_cntrl3.sequencer.pio-slave-port            8                       # Cumulative packet size per connected master and slave (bytes)
system.iobus.pkt_size_system.ruby.l1_cntrl2.sequencer.mem-master-port::total         1220                       # Cumulative packet size per connected master and slave (bytes)
system.iobus.pkt_size_system.ruby.l1_cntrl3.sequencer.mem-master-port::system.pc.com_1.pio            1                       # Cumulative packet size per connected master and slave (bytes)
system.iobus.pkt_size_system.ruby.l1_cntrl3.sequencer.mem-master-port::system.ruby.l1_cntrl0.sequencer.pio-slave-port            4                       # Cumulative packet size per connected master and slave (bytes)
system.iobus.pkt_size_system.ruby.l1_cntrl3.sequencer.mem-master-port::system.ruby.l1_cntrl3.sequencer.pio-slave-port         1168                       # Cumulative packet size per connected master and slave (bytes)
system.iobus.pkt_size_system.ruby.l1_cntrl3.sequencer.mem-master-port::total         1173                       # Cumulative packet size per connected master and slave (bytes)
system.iobus.pkt_size::total                     5712                       # Cumulative packet size per connected master and slave (bytes)
system.iobus.reqLayer8.occupancy                13498                       # Layer occupancy (ticks)
system.iobus.reqLayer8.utilization                0.0                       # Layer utilization (%)
system.iobus.reqLayer12.occupancy             1206500                       # Layer occupancy (ticks)
system.iobus.reqLayer12.utilization               0.0                       # Layer utilization (%)
system.iobus.reqLayer17.occupancy              736498                       # Layer occupancy (ticks)
system.iobus.reqLayer17.utilization               0.0                       # Layer utilization (%)
system.iobus.reqLayer18.occupancy              736500                       # Layer occupancy (ticks)
system.iobus.reqLayer18.utilization               0.0                       # Layer utilization (%)
system.iobus.reqLayer19.occupancy              804258                       # Layer occupancy (ticks)
system.iobus.reqLayer19.utilization               0.0                       # Layer utilization (%)
system.iobus.reqLayer20.occupancy              734000                       # Layer occupancy (ticks)
system.iobus.reqLayer20.utilization               0.0                       # Layer utilization (%)
system.iobus.respLayer0.occupancy                2500                       # Layer occupancy (ticks)
system.iobus.respLayer0.utilization               0.0                       # Layer utilization (%)
system.iobus.respLayer2.occupancy              450500                       # Layer occupancy (ticks)
system.iobus.respLayer2.utilization               0.0                       # Layer utilization (%)
system.iobus.respLayer4.occupancy             2067500                       # Layer occupancy (ticks)
system.iobus.respLayer4.utilization               0.0                       # Layer utilization (%)
system.iobus.respLayer6.occupancy              459000                       # Layer occupancy (ticks)
system.iobus.respLayer6.utilization               0.0                       # Layer utilization (%)
system.iobus.respLayer8.occupancy              441000                       # Layer occupancy (ticks)
system.iobus.respLayer8.utilization               0.0                       # Layer utilization (%)
system.pc.south_bridge.ide.disks.dma_read_full_pages            0                       # Number of full page size DMA reads (not PRD).
system.pc.south_bridge.ide.disks.dma_read_bytes            0                       # Number of bytes transfered via DMA reads (not PRD).
system.pc.south_bridge.ide.disks.dma_read_txs            0                       # Number of DMA read transactions (not PRD).
system.pc.south_bridge.ide.disks.dma_write_full_pages            0                       # Number of full page size DMA writes.
system.pc.south_bridge.ide.disks.dma_write_bytes            0                       # Number of bytes transfered via DMA writes.
system.pc.south_bridge.ide.disks.dma_write_txs            0                       # Number of DMA write transactions.
system.ruby.clk_domain.clock                      500                       # Clock period in ticks
system.ruby.outstanding_req_hist_seqr::bucket_size            1                      
system.ruby.outstanding_req_hist_seqr::max_bucket            9                      
system.ruby.outstanding_req_hist_seqr::samples    936083921                      
system.ruby.outstanding_req_hist_seqr::mean     1.000000                      
system.ruby.outstanding_req_hist_seqr::gmean     1.000000                      
system.ruby.outstanding_req_hist_seqr::stdev     0.000510                      
system.ruby.outstanding_req_hist_seqr    |           0      0.00%      0.00% |   936083678    100.00%    100.00% |         243      0.00%    100.00% |           0      0.00%    100.00% |           0      0.00%    100.00% |           0      0.00%    100.00% |           0      0.00%    100.00% |           0      0.00%    100.00% |           0      0.00%    100.00% |           0      0.00%    100.00%
system.ruby.outstanding_req_hist_seqr::total    936083921                      
system.ruby.latency_hist_seqr::bucket_size          256                      
system.ruby.latency_hist_seqr::max_bucket         2559                      
system.ruby.latency_hist_seqr::samples      936083921                      
system.ruby.latency_hist_seqr::mean          1.459654                      
system.ruby.latency_hist_seqr::gmean         1.031200                      
system.ruby.latency_hist_seqr::stdev         8.526954                      
system.ruby.latency_hist_seqr            |   935979619     99.99%     99.99% |       58402      0.01%    100.00% |       40318      0.00%    100.00% |        3608      0.00%    100.00% |        1396      0.00%    100.00% |         400      0.00%    100.00% |         123      0.00%    100.00% |          39      0.00%    100.00% |          12      0.00%    100.00% |           4      0.00%    100.00%
system.ruby.latency_hist_seqr::total        936083921                      
system.ruby.hit_latency_hist_seqr::bucket_size            2                      
system.ruby.hit_latency_hist_seqr::max_bucket           19                      
system.ruby.hit_latency_hist_seqr::samples    933203876                      
system.ruby.hit_latency_hist_seqr::mean      1.067273                      
system.ruby.hit_latency_hist_seqr::gmean     1.016262                      
system.ruby.hit_latency_hist_seqr::stdev     0.817440                      
system.ruby.hit_latency_hist_seqr        |   926925891     99.33%     99.33% |           0      0.00%     99.33% |           0      0.00%     99.33% |           0      0.00%     99.33% |           0      0.00%     99.33% |     6277985      0.67%    100.00% |           0      0.00%    100.00% |           0      0.00%    100.00% |           0      0.00%    100.00% |           0      0.00%    100.00%
system.ruby.hit_latency_hist_seqr::total    933203876                      
system.ruby.miss_latency_hist_seqr::bucket_size          256                      
system.ruby.miss_latency_hist_seqr::max_bucket         2559                      
system.ruby.miss_latency_hist_seqr::samples      2880045                      
system.ruby.miss_latency_hist_seqr::mean   128.600412                      
system.ruby.miss_latency_hist_seqr::gmean   116.615627                      
system.ruby.miss_latency_hist_seqr::stdev    84.858604                      
system.ruby.miss_latency_hist_seqr       |     2775743     96.38%     96.38% |       58402      2.03%     98.41% |       40318      1.40%     99.81% |        3608      0.13%     99.93% |        1396      0.05%     99.98% |         400      0.01%     99.99% |         123      0.00%    100.00% |          39      0.00%    100.00% |          12      0.00%    100.00% |           4      0.00%    100.00%
system.ruby.miss_latency_hist_seqr::total      2880045                      
system.ruby.L1Cache.incomplete_times_seqr           91                      
system.ruby.dir_cntrl0.probeFilter.demand_hits            0                       # Number of cache demand hits
system.ruby.dir_cntrl0.probeFilter.demand_misses            0                       # Number of cache demand misses
system.ruby.dir_cntrl0.probeFilter.demand_accesses            0                       # Number of cache demand accesses
system.ruby.l1_cntrl0.L1Dcache.demand_hits      1293432                       # Number of cache demand hits
system.ruby.l1_cntrl0.L1Dcache.demand_misses        50760                       # Number of cache demand misses
system.ruby.l1_cntrl0.L1Dcache.demand_accesses      1344192                       # Number of cache demand accesses
system.ruby.l1_cntrl0.L1Icache.demand_hits      3882407                       # Number of cache demand hits
system.ruby.l1_cntrl0.L1Icache.demand_misses        20635                       # Number of cache demand misses
system.ruby.l1_cntrl0.L1Icache.demand_accesses      3903042                       # Number of cache demand accesses
system.ruby.l1_cntrl0.L2cache.demand_hits        46193                       # Number of cache demand hits
system.ruby.l1_cntrl0.L2cache.demand_misses        25202                       # Number of cache demand misses
[...]
system.ruby.L1Cache_Controller.O.Trigger_L2_to_L1I::total        24323                      
system.ruby.L1Cache_Controller.O.Other_GETX |        1896     22.91%     22.91% |        3534     42.70%     65.60% |         393      4.75%     70.35% |        2454     29.65%    100.00%
system.ruby.L1Cache_Controller.O.Other_GETX::total         8277                      
system.ruby.L1Cache_Controller.O.Other_GETS |        4242     29.29%     29.29% |        5719     39.48%     68.77% |        1301      8.98%     77.75% |        3223     22.25%    100.00%
system.ruby.L1Cache_Controller.O.Other_GETS::total        14485                      
system.ruby.L1Cache_Controller.M.Load    |      129416      0.45%      0.45% |       73850      0.25%      0.70% |    28686806     99.02%     99.72% |       80950      0.28%    100.00%
system.ruby.L1Cache_Controller.M.Load::total     28971022                      
system.ruby.L1Cache_Controller.M.Ifetch  |     3043224      0.40%      0.40% |       85375      0.01%      0.42% |   747144504     99.41%     99.82% |     1322672      0.18%    100.00%
system.ruby.L1Cache_Controller.M.Ifetch::total    751595775                      
system.ruby.L1Cache_Controller.M.Store   |       15193      2.53%      2.53% |        2155      0.36%      2.89% |      581137     96.74%     99.63% |        2210      0.37%    100.00%
system.ruby.L1Cache_Controller.M.Store::total       600695                      
system.ruby.L1Cache_Controller.M.L2_Replacement |        1557      0.14%      0.14% |           0      0.00%      0.14% |     1091594     99.86%    100.00% |          10      0.00%    100.00%
system.ruby.L1Cache_Controller.M.L2_Replacement::total      1093161                      
system.ruby.L1Cache_Controller.M.L1_to_L2 |        8616      0.36%      0.36% |        4873      0.20%      0.56% |     2390613     99.19%     99.75% |        6142      0.25%    100.00%
system.ruby.L1Cache_Controller.M.L1_to_L2::total      2410244                      
system.ruby.L1Cache_Controller.M.Trigger_L2_to_L1D |        1645      0.13%      0.13% |        1487      0.11%      0.24% |     1290039     99.63%     99.87% |        1636      0.13%    100.00%
system.ruby.L1Cache_Controller.M.Trigger_L2_to_L1D::total      1294807                      
system.ruby.L1Cache_Controller.M.Trigger_L2_to_L1I |        2132     24.23%     24.23% |         212      2.41%     26.64% |        5214     59.26%     85.90% |        1241     14.10%    100.00%
system.ruby.L1Cache_Controller.M.Trigger_L2_to_L1I::total         8799                      
system.ruby.L1Cache_Controller.M.Other_GETX |         161      8.08%      8.08% |         181      9.08%     17.16% |         858     43.05%     60.21% |         793     39.79%    100.00%
system.ruby.L1Cache_Controller.M.Other_GETX::total         1993                      
system.ruby.L1Cache_Controller.M.Other_GETS |        4111     28.52%     28.52% |        4899     33.99%     62.51% |        1794     12.45%     74.96% |        3609     25.04%    100.00%
system.ruby.L1Cache_Controller.M.Other_GETS::total        14413                      
system.ruby.L1Cache_Controller.M.Merged_GETS |           5      5.32%      5.32% |          85     90.43%     95.74% |           1      1.06%     96.81% |           3      3.19%    100.00%
system.ruby.L1Cache_Controller.M.Merged_GETS::total           94                      
system.ruby.L1Cache_Controller.MM.Load   |     1986331      2.91%      2.91% |      366300      0.54%      3.45% |    65365962     95.78%     99.23% |      526643      0.77%    100.00%
system.ruby.L1Cache_Controller.MM.Load::total     68245236                      
system.ruby.L1Cache_Controller.MM.Store  |     1843336      3.19%      3.19% |      374885      0.65%      3.84% |    54978592     95.15%     98.99% |      581866      1.01%    100.00%
system.ruby.L1Cache_Controller.MM.Store::total     57778679                      
system.ruby.L1Cache_Controller.MM.L2_Replacement |        8930      0.51%      0.51% |           2      0.00%      0.51% |     1733628     99.48%    100.00% |          45      0.00%    100.00%
system.ruby.L1Cache_Controller.MM.L2_Replacement::total      1742605                      
system.ruby.L1Cache_Controller.MM.L1_to_L2 |       90573      1.35%      1.35% |        8510      0.13%      1.48% |     6591685     98.28%     99.76% |       16206      0.24%    100.00%
system.ruby.L1Cache_Controller.MM.L1_to_L2::total      6706974                      
system.ruby.L1Cache_Controller.MM.Trigger_L2_to_L1D |       65156      1.32%      1.32% |        3425      0.07%      1.39% |     4844346     98.47%     99.87% |        6455      0.13%    100.00%
system.ruby.L1Cache_Controller.MM.Trigger_L2_to_L1D::total      4919382                      
system.ruby.L1Cache_Controller.MM.Other_GETX |        2693     21.51%     21.51% |        2907     23.22%     44.72% |        3439     27.46%     72.18% |        3483     27.82%    100.00%
system.ruby.L1Cache_Controller.MM.Other_GETX::total        12522                      
system.ruby.L1Cache_Controller.MM.Other_GETS |        6089     24.14%     24.14% |        3128     12.40%     36.55% |       10575     41.93%     78.48% |        5428     21.52%    100.00%
system.ruby.L1Cache_Controller.MM.Other_GETS::total        25220                      
system.ruby.L1Cache_Controller.MM.Merged_GETS |          87     21.97%     21.97% |         102     25.76%     47.73% |          81     20.45%     68.18% |         126     31.82%    100.00%
system.ruby.L1Cache_Controller.MM.Merged_GETS::total          396                      
system.ruby.L1Cache_Controller.SR.Load   |        5989      8.25%      8.25% |        1785      2.46%     10.71% |       62056     85.46%     96.16% |        2786      3.84%    100.00%
system.ruby.L1Cache_Controller.SR.Load::total        72616                      
system.ruby.L1Cache_Controller.SR.Ifetch |       23848     29.41%     29.41% |        9143     11.27%     40.68% |       28736     35.43%     76.11% |       19372     23.89%    100.00%
system.ruby.L1Cache_Controller.SR.Ifetch::total        81099                      
system.ruby.L1Cache_Controller.SR.Store  |          90     26.01%     26.01% |           3      0.87%     26.88% |         211     60.98%     87.86% |          42     12.14%    100.00%
system.ruby.L1Cache_Controller.SR.Store::total          346                      
system.ruby.L1Cache_Controller.OR.Load   |        1440     13.93%     13.93% |        1260     12.19%     26.12% |        7035     68.07%     94.19% |         600      5.81%    100.00%
system.ruby.L1Cache_Controller.OR.Load::total        10335                      
system.ruby.L1Cache_Controller.OR.Ifetch |        5128     21.08%     21.08% |        5504     22.63%     43.71% |       12717     52.28%     96.00% |         974      4.00%    100.00%
system.ruby.L1Cache_Controller.OR.Ifetch::total        24323                      
system.ruby.L1Cache_Controller.OR.Store  |          17     23.94%     23.94% |           4      5.63%     29.58% |           7      9.86%     39.44% |          43     60.56%    100.00%
system.ruby.L1Cache_Controller.OR.Store::total           71                      
system.ruby.L1Cache_Controller.MR.Load   |        1268      0.10%      0.10% |        1411      0.11%      0.21% |     1288406     99.69%     99.90% |        1291      0.10%    100.00%
system.ruby.L1Cache_Controller.MR.Load::total      1292376                      
system.ruby.L1Cache_Controller.MR.Ifetch |        2132     24.23%     24.23% |         212      2.41%     26.64% |        5214     59.26%     85.90% |        1241     14.10%    100.00%
system.ruby.L1Cache_Controller.MR.Ifetch::total         8799                      
system.ruby.L1Cache_Controller.MR.Store  |         377     15.51%     15.51% |          76      3.13%     18.63% |        1633     67.17%     85.81% |         345     14.19%    100.00%
system.ruby.L1Cache_Controller.MR.Store::total         2431                      
system.ruby.L1Cache_Controller.MMR.Load  |       45794      1.62%      1.62% |        1362      0.05%      1.67% |     2770619     98.17%     99.84% |        4389      0.16%    100.00%
system.ruby.L1Cache_Controller.MMR.Load::total      2822164                      
system.ruby.L1Cache_Controller.MMR.Store |       19362      0.92%      0.92% |        2063      0.10%      1.02% |     2073727     98.88%     99.90% |        2066      0.10%    100.00%
system.ruby.L1Cache_Controller.MMR.Store::total      2097218                      
system.ruby.L1Cache_Controller.IM.Ack    |       22217      0.63%      0.63% |       12048      0.34%      0.97% |     3479315     98.33%     99.30% |       24722      0.70%    100.00%
system.ruby.L1Cache_Controller.IM.Ack::total      3538302                      
system.ruby.L1Cache_Controller.IM.Data   |        1187     40.69%     40.69% |         462     15.84%     56.53% |         802     27.49%     84.02% |         466     15.98%    100.00%
system.ruby.L1Cache_Controller.IM.Data::total         2917                      
system.ruby.L1Cache_Controller.IM.Exclusive_Data |       10729      0.90%      0.90% |        4742      0.40%      1.30% |     1163683     97.95%     99.25% |        8871      0.75%    100.00%
system.ruby.L1Cache_Controller.IM.Exclusive_Data::total      1188025                      
system.ruby.L1Cache_Controller.SM.Ack    |        1248     24.82%     24.82% |        1166     23.19%     48.01% |        1934     38.46%     86.48% |         680     13.52%    100.00%
system.ruby.L1Cache_Controller.SM.Ack::total         5028                      
system.ruby.L1Cache_Controller.SM.Data   |        1888     34.03%     34.03% |         925     16.67%     50.70% |        1817     32.75%     83.45% |         918     16.55%    100.00%
system.ruby.L1Cache_Controller.SM.Data::total         5548                      
system.ruby.L1Cache_Controller.OM.Ack    |         279     24.35%     24.35% |         303     26.44%     50.79% |          96      8.38%     59.16% |         468     40.84%    100.00%
system.ruby.L1Cache_Controller.OM.Ack::total         1146                      
system.ruby.L1Cache_Controller.OM.All_acks_no_sharers |          93     24.35%     24.35% |         101     26.44%     50.79% |          32      8.38%     59.16% |         156     40.84%    100.00%
system.ruby.L1Cache_Controller.OM.All_acks_no_sharers::total          382                      
system.ruby.L1Cache_Controller.ISM.Ack   |        4342     44.76%     44.76% |        1016     10.47%     55.23% |        2441     25.16%     80.39% |        1902     19.61%    100.00%
system.ruby.L1Cache_Controller.ISM.Ack::total         9701                      
system.ruby.L1Cache_Controller.ISM.All_acks_no_sharers |        3075     36.33%     36.33% |        1387     16.39%     52.71% |        2619     30.94%     83.65% |        1384     16.35%    100.00%
system.ruby.L1Cache_Controller.ISM.All_acks_no_sharers::total         8465                      
system.ruby.L1Cache_Controller.M_W.Load  |          25     15.43%     15.43% |          16      9.88%     25.31% |          65     40.12%     65.43% |          56     34.57%    100.00%
system.ruby.L1Cache_Controller.M_W.Load::total          162                      
system.ruby.L1Cache_Controller.M_W.Store |          17     16.50%     16.50% |           3      2.91%     19.42% |           7      6.80%     26.21% |          76     73.79%    100.00%
system.ruby.L1Cache_Controller.M_W.Store::total          103                      
system.ruby.L1Cache_Controller.M_W.Ack   |       10767     44.64%     44.64% |        5673     23.52%     68.16% |        4848     20.10%     88.26% |        2832     11.74%    100.00%
system.ruby.L1Cache_Controller.M_W.Ack::total        24120                      
system.ruby.L1Cache_Controller.M_W.All_acks_no_sharers |       21728      1.26%      1.26% |        8775      0.51%      1.78% |     1678873     97.74%     99.52% |        8312      0.48%    100.00%
system.ruby.L1Cache_Controller.M_W.All_acks_no_sharers::total      1717688                      
system.ruby.L1Cache_Controller.MM_W.Load |           0      0.00%      0.00% |           0      0.00%      0.00% |           0      0.00%      0.00% |           1    100.00%    100.00%
system.ruby.L1Cache_Controller.MM_W.Load::total            1                      
system.ruby.L1Cache_Controller.MM_W.Store |        2696     49.20%     49.20% |         692     12.63%     61.82% |        1498     27.34%     89.16% |         594     10.84%    100.00%
system.ruby.L1Cache_Controller.MM_W.Store::total         5480                      
system.ruby.L1Cache_Controller.MM_W.Ack  |        4928     35.84%     35.84% |        1352      9.83%     45.67% |        6385     46.44%     92.11% |        1085      7.89%    100.00%
system.ruby.L1Cache_Controller.MM_W.Ack::total        13750                      
system.ruby.L1Cache_Controller.MM_W.All_acks_no_sharers |       10746      0.90%      0.90% |        4745      0.40%      1.30% |     1163690     97.94%     99.25% |        8947      0.75%    100.00%
system.ruby.L1Cache_Controller.MM_W.All_acks_no_sharers::total      1188128                      
system.ruby.L1Cache_Controller.IS.Other_GETS |           0      0.00%      0.00% |           0      0.00%      0.00% |           0      0.00%      0.00% |           6    100.00%    100.00%
system.ruby.L1Cache_Controller.IS.Other_GETS::total            6                      
system.ruby.L1Cache_Controller.IS.Ack    |       53529      1.04%      1.04% |       20396      0.40%      1.44% |     5042577     98.10%     99.53% |       23928      0.47%    100.00%
system.ruby.L1Cache_Controller.IS.Ack::total      5140430                      
system.ruby.L1Cache_Controller.IS.Shared_Ack |        4937     19.53%     19.53% |        2477      9.80%     29.32% |       15334     60.65%     89.97% |        2536     10.03%    100.00%
system.ruby.L1Cache_Controller.IS.Shared_Ack::total        25284                      
system.ruby.L1Cache_Controller.IS.Data   |        2967     26.09%     26.09% |         800      7.04%     33.13% |        6867     60.39%     93.52% |         737      6.48%    100.00%
system.ruby.L1Cache_Controller.IS.Data::total        11371                      
system.ruby.L1Cache_Controller.IS.Shared_Data |        7553     25.70%     25.70% |        5152     17.53%     43.23% |       10455     35.57%     78.80% |        6229     21.20%    100.00%
system.ruby.L1Cache_Controller.IS.Shared_Data::total        29389                      
system.ruby.L1Cache_Controller.IS.Exclusive_Data |       21745      1.27%      1.27% |        8778      0.51%      1.78% |     1678880     97.73%     99.51% |        8388      0.49%    100.00%
system.ruby.L1Cache_Controller.IS.Exclusive_Data::total      1717791                      
system.ruby.L1Cache_Controller.SS.Load   |          18      3.31%      3.31% |           7      1.29%      4.60% |         232     42.65%     47.24% |         287     52.76%    100.00%
system.ruby.L1Cache_Controller.SS.Load::total          544                      
system.ruby.L1Cache_Controller.SS.Ifetch |        1134     18.91%     18.91% |         627     10.46%     29.36% |        2965     49.44%     78.81% |        1271     21.19%    100.00%
system.ruby.L1Cache_Controller.SS.Ifetch::total         5997                      
system.ruby.L1Cache_Controller.SS.Store  |           1      2.86%      2.86% |          23     65.71%     68.57% |           3      8.57%     77.14% |           8     22.86%    100.00%
system.ruby.L1Cache_Controller.SS.Store::total           35                      
system.ruby.L1Cache_Controller.SS.Ack    |        5169     25.54%     25.54% |        3972     19.63%     45.17% |        7243     35.79%     80.96% |        3852     19.04%    100.00%
system.ruby.L1Cache_Controller.SS.Ack::total        20236                      
system.ruby.L1Cache_Controller.SS.Shared_Ack |        2627     26.56%     26.56% |         841      8.50%     35.06% |        3776     38.18%     73.24% |        2647     26.76%    100.00%
system.ruby.L1Cache_Controller.SS.Shared_Ack::total         9891                      
system.ruby.L1Cache_Controller.SS.All_acks |        9824     24.85%     24.85% |        5915     14.96%     39.81% |       16834     42.58%     82.39% |        6963     17.61%    100.00%
system.ruby.L1Cache_Controller.SS.All_acks::total        39536                      
system.ruby.L1Cache_Controller.SS.All_acks_no_sharers |         696     56.86%     56.86% |          37      3.02%     59.89% |         488     39.87%     99.75% |           3      0.25%    100.00%
system.ruby.L1Cache_Controller.SS.All_acks_no_sharers::total         1224                      
system.ruby.L1Cache_Controller.OI.Load   |          23     65.71%     65.71% |           0      0.00%     65.71% |          12     34.29%    100.00% |           0      0.00%    100.00%
system.ruby.L1Cache_Controller.OI.Load::total           35                      
system.ruby.L1Cache_Controller.OI.Ifetch |           7     63.64%     63.64% |           0      0.00%     63.64% |           4     36.36%    100.00% |           0      0.00%    100.00%
system.ruby.L1Cache_Controller.OI.Ifetch::total           11                      
system.ruby.L1Cache_Controller.OI.Writeback_Ack |        1351     27.00%     27.00% |           1      0.02%     27.02% |        3642     72.80%     99.82% |           9      0.18%    100.00%
system.ruby.L1Cache_Controller.OI.Writeback_Ack::total         5003                      
system.ruby.L1Cache_Controller.MI.Load   |          62      0.22%      0.22% |           0      0.00%      0.22% |       28514     99.78%    100.00% |           1      0.00%    100.00%
system.ruby.L1Cache_Controller.MI.Load::total        28577                      
system.ruby.L1Cache_Controller.MI.Ifetch |           0      0.00%      0.00% |           0      0.00%      0.00% |           5    100.00%    100.00% |           0      0.00%    100.00%
system.ruby.L1Cache_Controller.MI.Ifetch::total            5                      
system.ruby.L1Cache_Controller.MI.Store  |          48      0.11%      0.11% |           0      0.00%      0.11% |       44693     99.89%    100.00% |           0      0.00%    100.00%
system.ruby.L1Cache_Controller.MI.Store::total        44741                      
system.ruby.L1Cache_Controller.MI.Writeback_Ack |       10487      0.37%      0.37% |           2      0.00%      0.37% |     2825222     99.63%    100.00% |          55      0.00%    100.00%
system.ruby.L1Cache_Controller.MI.Writeback_Ack::total      2835766                      
system.ruby.L1Cache_Controller.ST.Complete_L2_to_L1 |       29927     19.43%     19.43% |       10931      7.10%     26.52% |       91003     59.07%     85.59% |       22200     14.41%    100.00%
system.ruby.L1Cache_Controller.ST.Complete_L2_to_L1::total       154061                      
system.ruby.L1Cache_Controller.OT.Complete_L2_to_L1 |        6585     18.96%     18.96% |        6768     19.49%     38.45% |       19759     56.89%     95.34% |        1617      4.66%    100.00%
system.ruby.L1Cache_Controller.OT.Complete_L2_to_L1::total        34729                      
system.ruby.L1Cache_Controller.MT.Complete_L2_to_L1 |        3777      0.29%      0.29% |        1699      0.13%      0.42% |     1295253     99.36%     99.78% |        2877      0.22%    100.00%
system.ruby.L1Cache_Controller.MT.Complete_L2_to_L1::total      1303606                      
system.ruby.L1Cache_Controller.MMT.Complete_L2_to_L1 |       65156      1.32%      1.32% |        3425      0.07%      1.39% |     4844346     98.47%     99.87% |        6455      0.13%    100.00%
system.ruby.L1Cache_Controller.MMT.Complete_L2_to_L1::total      4919382                      

---------- End Simulation Statistics   ----------
