
---------- Begin Simulation Statistics ----------
sim_seconds                                  2.966959                       # Number of seconds simulated
sim_ticks                                2966958622500                       # Number of ticks simulated
final_tick                               56117719416501                       # Number of ticks from beginning of simulation (restored from checkpoints and never reset)
sim_freq                                 1000000000000                       # Frequency of simulated ticks
host_inst_rate                                 136341                       # Simulator instruction rate (inst/s)
host_op_rate                                   228497                       # Simulator op (including micro ops) rate (op/s)
host_tick_rate                              263816850                       # Simulator tick rate (ticks/s)
host_mem_usage                                1981860                       # Number of bytes of host memory used
host_seconds                                 11246.28                       # Real time elapsed on the host
sim_insts                                  1533331532                       # Number of instructions simulated
sim_ops                                    2569744192                       # Number of ops (including micro ops) simulated
system.voltage_domain.voltage                       1                       # Voltage in Volts
system.clk_domain.clock                          1000                       # Clock period in ticks
system.mem_ctrls0.bytes_read::ruby.dir_cntrl0      2687488                       # Number of bytes read from this memory
system.mem_ctrls0.bytes_read::total           2687488                       # Number of bytes read from this memory
system.mem_ctrls0.bytes_written::ruby.dir_cntrl0       296576                       # Number of bytes written to this memory
system.mem_ctrls0.bytes_written::total         296576                       # Number of bytes written to this memory
system.mem_ctrls0.num_reads::ruby.dir_cntrl0        41992                       # Number of read requests responded to by this memory
system.mem_ctrls0.num_reads::total              41992                       # Number of read requests responded to by this memory
system.mem_ctrls0.num_writes::ruby.dir_cntrl0         4634                       # Number of write requests responded to by this memory
system.mem_ctrls0.num_writes::total              4634                       # Number of write requests responded to by this memory
system.mem_ctrls0.bw_read::ruby.dir_cntrl0       905806                       # Total read bandwidth from this memory (bytes/s)
system.mem_ctrls0.bw_read::total               905806                       # Total read bandwidth from this memory (bytes/s)
system.mem_ctrls0.bw_write::ruby.dir_cntrl0        99960                       # Write bandwidth from this memory (bytes/s)
system.mem_ctrls0.bw_write::total               99960                       # Write bandwidth from this memory (bytes/s)
system.mem_ctrls0.bw_total::ruby.dir_cntrl0      1005765                       # Total bandwidth to/from this memory (bytes/s)
system.mem_ctrls0.bw_total::total             1005765                       # Total bandwidth to/from this memory (bytes/s)
system.mem_ctrls0.readReqs                      41992                       # Number of read requests accepted
system.mem_ctrls0.writeReqs                      4634                       # Number of write requests accepted
system.mem_ctrls0.readBursts                    41992                       # Number of DRAM read bursts, including those serviced by the write queue
system.mem_ctrls0.writeBursts                    4634                       # Number of DRAM write bursts, including those merged in the write queue
system.mem_ctrls0.bytesReadDRAM               2685440                       # Total number of bytes read from DRAM
system.mem_ctrls0.bytesReadWrQ                   2048                       # Total number of bytes read from write queue
system.mem_ctrls0.bytesWritten                 295744                       # Total number of bytes written to DRAM
system.mem_ctrls0.bytesReadSys                2687488                       # Total read bytes from the system interface side
system.mem_ctrls0.bytesWrittenSys              296576                       # Total written bytes from the system interface side
system.mem_ctrls0.servicedByWrQ                    32                       # Number of DRAM read bursts serviced by the write queue
system.mem_ctrls0.mergedWrBursts                    0                       # Number of DRAM write bursts merged with an existing one
system.mem_ctrls0.neitherReadNorWriteReqs            0                       # Number of requests that are neither read nor write
system.mem_ctrls0.perBankRdBursts::0             4220                       # Per bank write bursts
system.mem_ctrls0.perBankRdBursts::1             3646                       # Per bank write bursts
system.mem_ctrls0.perBankRdBursts::2             1144                       # Per bank write bursts
system.mem_ctrls0.perBankRdBursts::3              950                       # Per bank write bursts
system.mem_ctrls0.perBankRdBursts::4             1356                       # Per bank write bursts
system.mem_ctrls0.perBankRdBursts::5              881                       # Per bank write bursts
system.mem_ctrls0.perBankRdBursts::6             3668                       # Per bank write bursts
system.mem_ctrls0.perBankRdBursts::7             4009                       # Per bank write bursts
system.mem_ctrls0.perBankRdBursts::8             4301                       # Per bank write bursts
system.mem_ctrls0.perBankRdBursts::9             3983                       # Per bank write bursts
system.mem_ctrls0.perBankRdBursts::10            1637                       # Per bank write bursts
system.mem_ctrls0.perBankRdBursts::11            1345                       # Per bank write bursts
system.mem_ctrls0.perBankRdBursts::12            1549                       # Per bank write bursts
system.mem_ctrls0.perBankRdBursts::13            1296                       # Per bank write bursts
system.mem_ctrls0.perBankRdBursts::14            3847                       # Per bank write bursts
system.mem_ctrls0.perBankRdBursts::15            4128                       # Per bank write bursts
system.mem_ctrls0.perBankWrBursts::0              384                       # Per bank write bursts
system.mem_ctrls0.perBankWrBursts::1              305                       # Per bank write bursts
system.mem_ctrls0.perBankWrBursts::2              304                       # Per bank write bursts
system.mem_ctrls0.perBankWrBursts::3              320                       # Per bank write bursts
system.mem_ctrls0.perBankWrBursts::4              493                       # Per bank write bursts
system.mem_ctrls0.perBankWrBursts::5              147                       # Per bank write bursts
system.mem_ctrls0.perBankWrBursts::6              462                       # Per bank write bursts
system.mem_ctrls0.perBankWrBursts::7              393                       # Per bank write bursts
system.mem_ctrls0.perBankWrBursts::8              285                       # Per bank write bursts
system.mem_ctrls0.perBankWrBursts::9              176                       # Per bank write bursts
system.mem_ctrls0.perBankWrBursts::10             191                       # Per bank write bursts
system.mem_ctrls0.perBankWrBursts::11             188                       # Per bank write bursts
system.mem_ctrls0.perBankWrBursts::12             153                       # Per bank write bursts
system.mem_ctrls0.perBankWrBursts::13             145                       # Per bank write bursts
system.mem_ctrls0.perBankWrBursts::14             297                       # Per bank write bursts
system.mem_ctrls0.perBankWrBursts::15             378                       # Per bank write bursts
system.mem_ctrls0.numRdRetry                        0                       # Number of times read queue was full causing retry
system.mem_ctrls0.numWrRetry                        0                       # Number of times write queue was full causing retry
system.mem_ctrls0.totGap                 2966965909000                       # Total gap between requests
system.mem_ctrls0.readPktSize::0                    0                       # Read request sizes (log2)
system.mem_ctrls0.readPktSize::1                    0                       # Read request sizes (log2)
system.mem_ctrls0.readPktSize::2                    0                       # Read request sizes (log2)
system.mem_ctrls0.readPktSize::3                    0                       # Read request sizes (log2)
system.mem_ctrls0.readPktSize::4                    0                       # Read request sizes (log2)
system.mem_ctrls0.readPktSize::5                    0                       # Read request sizes (log2)
system.mem_ctrls0.readPktSize::6                41992                       # Read request sizes (log2)
system.mem_ctrls0.writePktSize::0                   0                       # Write request sizes (log2)
system.mem_ctrls0.writePktSize::1                   0                       # Write request sizes (log2)
system.mem_ctrls0.writePktSize::2                   0                       # Write request sizes (log2)
system.mem_ctrls0.writePktSize::3                   0                       # Write request sizes (log2)
system.mem_ctrls0.writePktSize::4                   0                       # Write request sizes (log2)
system.mem_ctrls0.writePktSize::5                   0                       # Write request sizes (log2)
system.mem_ctrls0.writePktSize::6                4634                       # Write request sizes (log2)
system.mem_ctrls0.rdQLenPdf::0                  41800                       # What read queue length does an incoming req see
system.mem_ctrls0.rdQLenPdf::1                    160                       # What read queue length does an incoming req see
system.mem_ctrls0.rdQLenPdf::2                      0                       # What read queue length does an incoming req see
system.mem_ctrls0.rdQLenPdf::3                      0                       # What read queue length does an incoming req see
system.mem_ctrls0.rdQLenPdf::4                      0                       # What read queue length does an incoming req see
system.mem_ctrls0.rdQLenPdf::5                      0                       # What read queue length does an incoming req see
system.mem_ctrls0.rdQLenPdf::6                      0                       # What read queue length does an incoming req see
system.mem_ctrls0.rdQLenPdf::7                      0                       # What read queue length does an incoming req see
system.mem_ctrls0.rdQLenPdf::8                      0                       # What read queue length does an incoming req see
system.mem_ctrls0.rdQLenPdf::9                      0                       # What read queue length does an incoming req see
system.mem_ctrls0.rdQLenPdf::10                     0                       # What read queue length does an incoming req see
system.mem_ctrls0.rdQLenPdf::11                     0                       # What read queue length does an incoming req see
system.mem_ctrls0.rdQLenPdf::12                     0                       # What read queue length does an incoming req see
system.mem_ctrls0.rdQLenPdf::13                     0                       # What read queue length does an incoming req see
system.mem_ctrls0.rdQLenPdf::14                     0                       # What read queue length does an incoming req see
system.mem_ctrls0.rdQLenPdf::15                     0                       # What read queue length does an incoming req see
system.mem_ctrls0.rdQLenPdf::16                     0                       # What read queue length does an incoming req see
system.mem_ctrls0.rdQLenPdf::17                     0                       # What read queue length does an incoming req see
system.mem_ctrls0.rdQLenPdf::18                     0                       # What read queue length does an incoming req see
system.mem_ctrls0.rdQLenPdf::19                     0                       # What read queue length does an incoming req see
system.mem_ctrls0.rdQLenPdf::20                     0                       # What read queue length does an incoming req see
system.mem_ctrls0.rdQLenPdf::21                     0                       # What read queue length does an incoming req see
system.mem_ctrls0.rdQLenPdf::22                     0                       # What read queue length does an incoming req see
system.mem_ctrls0.rdQLenPdf::23                     0                       # What read queue length does an incoming req see
system.mem_ctrls0.rdQLenPdf::24                     0                       # What read queue length does an incoming req see
system.mem_ctrls0.rdQLenPdf::25                     0                       # What read queue length does an incoming req see
system.mem_ctrls0.rdQLenPdf::26                     0                       # What read queue length does an incoming req see
system.mem_ctrls0.rdQLenPdf::27                     0                       # What read queue length does an incoming req see
system.mem_ctrls0.rdQLenPdf::28                     0                       # What read queue length does an incoming req see
system.mem_ctrls0.rdQLenPdf::29                     0                       # What read queue length does an incoming req see
system.mem_ctrls0.rdQLenPdf::30                     0                       # What read queue length does an incoming req see
system.mem_ctrls0.rdQLenPdf::31                     0                       # What read queue length does an incoming req see
system.mem_ctrls0.wrQLenPdf::0                      0                       # What write queue length does an incoming req see
system.mem_ctrls0.wrQLenPdf::1                      0                       # What write queue length does an incoming req see
system.mem_ctrls0.wrQLenPdf::2                      0                       # What write queue length does an incoming req see
system.mem_ctrls0.wrQLenPdf::3                      0                       # What write queue length does an incoming req see
system.mem_ctrls0.wrQLenPdf::4                      0                       # What write queue length does an incoming req see
system.mem_ctrls0.wrQLenPdf::5                      0                       # What write queue length does an incoming req see
system.mem_ctrls0.wrQLenPdf::6                      0                       # What write queue length does an incoming req see
system.mem_ctrls0.wrQLenPdf::7                      0                       # What write queue length does an incoming req see
system.mem_ctrls0.wrQLenPdf::8                      0                       # What write queue length does an incoming req see
system.mem_ctrls0.wrQLenPdf::9                      0                       # What write queue length does an incoming req see
system.mem_ctrls0.wrQLenPdf::10                     0                       # What write queue length does an incoming req see
system.mem_ctrls0.wrQLenPdf::11                     0                       # What write queue length does an incoming req see
system.mem_ctrls0.wrQLenPdf::12                     0                       # What write queue length does an incoming req see
system.mem_ctrls0.wrQLenPdf::13                     0                       # What write queue length does an incoming req see
system.mem_ctrls0.wrQLenPdf::14                     1                       # What write queue length does an incoming req see
system.mem_ctrls0.wrQLenPdf::15                   237                       # What write queue length does an incoming req see
system.mem_ctrls0.wrQLenPdf::16                   253                       # What write queue length does an incoming req see
system.mem_ctrls0.wrQLenPdf::17                   263                       # What write queue length does an incoming req see
system.mem_ctrls0.wrQLenPdf::18                   269                       # What write queue length does an incoming req see
system.mem_ctrls0.wrQLenPdf::19                   260                       # What write queue length does an incoming req see
system.mem_ctrls0.wrQLenPdf::20                   260                       # What write queue length does an incoming req see
system.mem_ctrls0.wrQLenPdf::21                   258                       # What write queue length does an incoming req see
system.mem_ctrls0.wrQLenPdf::22                   258                       # What write queue length does an incoming req see
system.mem_ctrls0.wrQLenPdf::23                   260                       # What write queue length does an incoming req see
system.mem_ctrls0.wrQLenPdf::24                   258                       # What write queue length does an incoming req see
system.mem_ctrls0.wrQLenPdf::25                   258                       # What write queue length does an incoming req see
system.mem_ctrls0.wrQLenPdf::26                   257                       # What write queue length does an incoming req see
system.mem_ctrls0.wrQLenPdf::27                   261                       # What write queue length does an incoming req see
system.mem_ctrls0.wrQLenPdf::28                   256                       # What write queue length does an incoming req see
system.mem_ctrls0.wrQLenPdf::29                   257                       # What write queue length does an incoming req see
system.mem_ctrls0.wrQLenPdf::30                   256                       # What write queue length does an incoming req see
system.mem_ctrls0.wrQLenPdf::31                   256                       # What write queue length does an incoming req see
system.mem_ctrls0.wrQLenPdf::32                   256                       # What write queue length does an incoming req see
system.mem_ctrls0.wrQLenPdf::33                     0                       # What write queue length does an incoming req see
system.mem_ctrls0.wrQLenPdf::34                     0                       # What write queue length does an incoming req see
system.mem_ctrls0.wrQLenPdf::35                     0                       # What write queue length does an incoming req see
system.mem_ctrls0.wrQLenPdf::36                     0                       # What write queue length does an incoming req see
system.mem_ctrls0.wrQLenPdf::37                     0                       # What write queue length does an incoming req see
system.mem_ctrls0.wrQLenPdf::38                     0                       # What write queue length does an incoming req see
system.mem_ctrls0.wrQLenPdf::39                     0                       # What write queue length does an incoming req see
system.mem_ctrls0.wrQLenPdf::40                     0                       # What write queue length does an incoming req see
system.mem_ctrls0.wrQLenPdf::41                     0                       # What write queue length does an incoming req see
system.mem_ctrls0.wrQLenPdf::42                     0                       # What write queue length does an incoming req see
system.mem_ctrls0.wrQLenPdf::43                     0                       # What write queue length does an incoming req see
system.mem_ctrls0.wrQLenPdf::44                     0                       # What write queue length does an incoming req see
system.mem_ctrls0.wrQLenPdf::45                     0                       # What write queue length does an incoming req see
system.mem_ctrls0.wrQLenPdf::46                     0                       # What write queue length does an incoming req see
system.mem_ctrls0.wrQLenPdf::47                     0                       # What write queue length does an incoming req see
system.mem_ctrls0.wrQLenPdf::48                     0                       # What write queue length does an incoming req see
system.mem_ctrls0.wrQLenPdf::49                     0                       # What write queue length does an incoming req see
system.mem_ctrls0.wrQLenPdf::50                     0                       # What write queue length does an incoming req see
system.mem_ctrls0.wrQLenPdf::51                     0                       # What write queue length does an incoming req see
system.mem_ctrls0.wrQLenPdf::52                     0                       # What write queue length does an incoming req see
system.mem_ctrls0.wrQLenPdf::53                     0                       # What write queue length does an incoming req see
system.mem_ctrls0.wrQLenPdf::54                     0                       # What write queue length does an incoming req see
system.mem_ctrls0.wrQLenPdf::55                     0                       # What write queue length does an incoming req see
system.mem_ctrls0.wrQLenPdf::56                     0                       # What write queue length does an incoming req see
system.mem_ctrls0.wrQLenPdf::57                     0                       # What write queue length does an incoming req see
system.mem_ctrls0.wrQLenPdf::58                     0                       # What write queue length does an incoming req see
system.mem_ctrls0.wrQLenPdf::59                     0                       # What write queue length does an incoming req see
system.mem_ctrls0.wrQLenPdf::60                     0                       # What write queue length does an incoming req see
system.mem_ctrls0.wrQLenPdf::61                     0                       # What write queue length does an incoming req see
system.mem_ctrls0.wrQLenPdf::62                     0                       # What write queue length does an incoming req see
system.mem_ctrls0.wrQLenPdf::63                     0                       # What write queue length does an incoming req see
system.mem_ctrls0.bytesPerActivate::samples        14751                       # Bytes accessed per row activation
system.mem_ctrls0.bytesPerActivate::mean   202.096129                       # Bytes accessed per row activation
system.mem_ctrls0.bytesPerActivate::gmean   121.159991                       # Bytes accessed per row activation
system.mem_ctrls0.bytesPerActivate::stdev   272.200049                       # Bytes accessed per row activation
system.mem_ctrls0.bytesPerActivate::0-127         7795     52.84%     52.84% # Bytes accessed per row activation
system.mem_ctrls0.bytesPerActivate::128-255         4285     29.05%     81.89% # Bytes accessed per row activation
system.mem_ctrls0.bytesPerActivate::256-383          618      4.19%     86.08% # Bytes accessed per row activation
system.mem_ctrls0.bytesPerActivate::384-511          296      2.01%     88.09% # Bytes accessed per row activation
system.mem_ctrls0.bytesPerActivate::512-639          262      1.78%     89.87% # Bytes accessed per row activation
system.mem_ctrls0.bytesPerActivate::640-767          143      0.97%     90.83% # Bytes accessed per row activation
system.mem_ctrls0.bytesPerActivate::768-895          134      0.91%     91.74% # Bytes accessed per row activation
system.mem_ctrls0.bytesPerActivate::896-1023          161      1.09%     92.83% # Bytes accessed per row activation
system.mem_ctrls0.bytesPerActivate::1024-1151         1057      7.17%    100.00% # Bytes accessed per row activation
system.mem_ctrls0.bytesPerActivate::total        14751                       # Bytes accessed per row activation
system.mem_ctrls0.rdPerTurnAround::samples          256                       # Reads before turning the bus around for writes
system.mem_ctrls0.rdPerTurnAround::mean    182.714844                       # Reads before turning the bus around for writes
system.mem_ctrls0.rdPerTurnAround::stdev   721.875722                       # Reads before turning the bus around for writes
system.mem_ctrls0.rdPerTurnAround::0-255          241     94.14%     94.14% # Reads before turning the bus around for writes
system.mem_ctrls0.rdPerTurnAround::256-511            6      2.34%     96.48% # Reads before turning the bus around for writes
system.mem_ctrls0.rdPerTurnAround::512-767            4      1.56%     98.05% # Reads before turning the bus around for writes
system.mem_ctrls0.rdPerTurnAround::2048-2303            1      0.39%     98.44% # Reads before turning the bus around for writes
system.mem_ctrls0.rdPerTurnAround::4096-4351            1      0.39%     98.83% # Reads before turning the bus around for writes
system.mem_ctrls0.rdPerTurnAround::4864-5119            1      0.39%     99.22% # Reads before turning the bus around for writes
system.mem_ctrls0.rdPerTurnAround::5376-5631            1      0.39%     99.61% # Reads before turning the bus around for writes
system.mem_ctrls0.rdPerTurnAround::7680-7935            1      0.39%    100.00% # Reads before turning the bus around for writes
system.mem_ctrls0.rdPerTurnAround::total          256                       # Reads before turning the bus around for writes
system.mem_ctrls0.wrPerTurnAround::samples          256                       # Writes before turning the bus around for reads
system.mem_ctrls0.wrPerTurnAround::mean     18.050781                       # Writes before turning the bus around for reads
system.mem_ctrls0.wrPerTurnAround::gmean    18.032502                       # Writes before turning the bus around for reads
system.mem_ctrls0.wrPerTurnAround::stdev     0.812500                       # Writes before turning the bus around for reads
system.mem_ctrls0.wrPerTurnAround::16              19      7.42%      7.42% # Writes before turning the bus around for reads
system.mem_ctrls0.wrPerTurnAround::18             205     80.08%     87.50% # Writes before turning the bus around for reads
system.mem_ctrls0.wrPerTurnAround::19              15      5.86%     93.36% # Writes before turning the bus around for reads
system.mem_ctrls0.wrPerTurnAround::20              15      5.86%     99.22% # Writes before turning the bus around for reads
system.mem_ctrls0.wrPerTurnAround::21               2      0.78%    100.00% # Writes before turning the bus around for reads
system.mem_ctrls0.wrPerTurnAround::total          256                       # Writes before turning the bus around for reads
system.mem_ctrls0.totQLat                   282003499                       # Total ticks spent queuing
system.mem_ctrls0.totMemAccLat             1068753499                       # Total ticks spent from burst creation until serviced by the DRAM
system.mem_ctrls0.totBusLat                 209800000                       # Total ticks spent in databus transfers
system.mem_ctrls0.avgQLat                     6720.77                       # Average queueing delay per DRAM burst
system.mem_ctrls0.avgBusLat                   5000.00                       # Average bus latency per DRAM burst
system.mem_ctrls0.avgMemAccLat               25470.77                       # Average memory access latency per DRAM burst
system.mem_ctrls0.avgRdBW                        0.91                       # Average DRAM read bandwidth in MiByte/s
system.mem_ctrls0.avgWrBW                        0.10                       # Average achieved write bandwidth in MiByte/s
system.mem_ctrls0.avgRdBWSys                     0.91                       # Average system read bandwidth in MiByte/s
system.mem_ctrls0.avgWrBWSys                     0.10                       # Average system write bandwidth in MiByte/s
system.mem_ctrls0.peakBW                     12800.00                       # Theoretical peak bandwidth in MiByte/s
system.mem_ctrls0.busUtil                        0.01                       # Data bus utilization in percentage
system.mem_ctrls0.busUtilRead                    0.01                       # Data bus utilization in percentage for reads
system.mem_ctrls0.busUtilWrite                   0.00                       # Data bus utilization in percentage for writes
system.mem_ctrls0.avgRdQLen                      1.00                       # Average read queue length when enqueuing
system.mem_ctrls0.avgWrQLen                     24.70                       # Average write queue length when enqueuing
system.mem_ctrls0.readRowHits                   29874                       # Number of row buffer hits during reads
system.mem_ctrls0.writeRowHits                   1955                       # Number of row buffer hits during writes
system.mem_ctrls0.readRowHitRate                71.20                       # Row buffer hit rate for reads
system.mem_ctrls0.writeRowHitRate               42.19                       # Row buffer hit rate for writes
system.mem_ctrls0.avgGap                  63633292.78                       # Average gap between requests
system.mem_ctrls0.pageHitRate                   68.31                       # Row buffer hit rate, read and write combined
system.mem_ctrls0_0.actEnergy                60593400                       # Energy for activate commands per rank (pJ)
system.mem_ctrls0_0.preEnergy                33061875                       # Energy for precharge commands per rank (pJ)
system.mem_ctrls0_0.readEnergy              178713600                       # Energy for read commands per rank (pJ)
system.mem_ctrls0_0.writeEnergy              18195840                       # Energy for write commands per rank (pJ)
system.mem_ctrls0_0.refreshEnergy        194054290560                       # Energy for refresh commands per rank (pJ)
system.mem_ctrls0_0.actBackEnergy         77174295570                       # Energy for active background per rank (pJ)
system.mem_ctrls0_0.preBackEnergy        1714931075250                       # Energy for precharge background per rank (pJ)
system.mem_ctrls0_0.totalEnergy          1986450226095                       # Total energy per rank (pJ)
system.mem_ctrls0_0.averagePower           668.602901                       # Core power per rank (mW)
system.mem_ctrls0_0.memoryStateTime::IDLE 2851041555000                       # Time in different power states
system.mem_ctrls0_0.memoryStateTime::REF  99073260000                       # Time in different power states
system.mem_ctrls0_0.memoryStateTime::PRE_PDN            0                       # Time in different power states
system.mem_ctrls0_0.memoryStateTime::ACT  16843838750                       # Time in different power states
system.mem_ctrls0_0.memoryStateTime::ACT_PDN            0                       # Time in different power states
system.mem_ctrls0_1.actEnergy                64373400                       # Energy for activate commands per rank (pJ)
system.mem_ctrls0_1.preEnergy                35124375                       # Energy for precharge commands per rank (pJ)
system.mem_ctrls0_1.readEnergy              186856800                       # Energy for read commands per rank (pJ)
system.mem_ctrls0_1.writeEnergy              11748240                       # Energy for write commands per rank (pJ)
system.mem_ctrls0_1.refreshEnergy        194054290560                       # Energy for refresh commands per rank (pJ)
system.mem_ctrls0_1.actBackEnergy         78165077265                       # Energy for active background per rank (pJ)
system.mem_ctrls0_1.preBackEnergy        1714061976750                       # Energy for precharge background per rank (pJ)
system.mem_ctrls0_1.totalEnergy          1986579447390                       # Total energy per rank (pJ)
system.mem_ctrls0_1.averagePower           668.646391                       # Core power per rank (mW)
system.mem_ctrls0_1.memoryStateTime::IDLE 2849288074000                       # Time in different power states
system.mem_ctrls0_1.memoryStateTime::REF  99073260000                       # Time in different power states
system.mem_ctrls0_1.memoryStateTime::PRE_PDN            0                       # Time in different power states
system.mem_ctrls0_1.memoryStateTime::ACT  18597014750                       # Time in different power states
system.mem_ctrls0_1.memoryStateTime::ACT_PDN            0                       # Time in different power states
system.mem_ctrls1.bytes_read::ruby.dir_cntrl1      2579392                       # Number of bytes read from this memory
system.mem_ctrls1.bytes_read::total           2579392                       # Number of bytes read from this memory
system.mem_ctrls1.bytes_written::ruby.dir_cntrl1       278400                       # Number of bytes written to this memory
system.mem_ctrls1.bytes_written::total         278400                       # Number of bytes written to this memory
system.mem_ctrls1.num_reads::ruby.dir_cntrl1        40303                       # Number of read requests responded to by this memory
system.mem_ctrls1.num_reads::total              40303                       # Number of read requests responded to by this memory
system.mem_ctrls1.num_writes::ruby.dir_cntrl1         4350                       # Number of write requests responded to by this memory
system.mem_ctrls1.num_writes::total              4350                       # Number of write requests responded to by this memory
system.mem_ctrls1.bw_read::ruby.dir_cntrl1       869372                       # Total read bandwidth from this memory (bytes/s)
system.mem_ctrls1.bw_read::total               869372                       # Total read bandwidth from this memory (bytes/s)
system.mem_ctrls1.bw_write::ruby.dir_cntrl1        93833                       # Write bandwidth from this memory (bytes/s)
system.mem_ctrls1.bw_write::total               93833                       # Write bandwidth from this memory (bytes/s)
system.mem_ctrls1.bw_total::ruby.dir_cntrl1       963206                       # Total bandwidth to/from this memory (bytes/s)
system.mem_ctrls1.bw_total::total              963206                       # Total bandwidth to/from this memory (bytes/s)
system.mem_ctrls1.readReqs                      40303                       # Number of read requests accepted
system.mem_ctrls1.writeReqs                      4350                       # Number of write requests accepted
system.mem_ctrls1.readBursts                    40303                       # Number of DRAM read bursts, including those serviced by the write queue
system.mem_ctrls1.writeBursts                    4350                       # Number of DRAM write bursts, including those merged in the write queue
system.mem_ctrls1.bytesReadDRAM               2578368                       # Total number of bytes read from DRAM
system.mem_ctrls1.bytesReadWrQ                   1024                       # Total number of bytes read from write queue
system.mem_ctrls1.bytesWritten                 278272                       # Total number of bytes written to DRAM
system.mem_ctrls1.bytesReadSys                2579392                       # Total read bytes from the system interface side
system.mem_ctrls1.bytesWrittenSys              278400                       # Total written bytes from the system interface side
system.mem_ctrls1.servicedByWrQ                    16                       # Number of DRAM read bursts serviced by the write queue
system.mem_ctrls1.mergedWrBursts                    0                       # Number of DRAM write bursts merged with an existing one
system.mem_ctrls1.neitherReadNorWriteReqs            0                       # Number of requests that are neither read nor write
system.mem_ctrls1.perBankRdBursts::0             4029                       # Per bank write bursts
system.mem_ctrls1.perBankRdBursts::1             3503                       # Per bank write bursts
system.mem_ctrls1.perBankRdBursts::2             1035                       # Per bank write bursts
system.mem_ctrls1.perBankRdBursts::3              889                       # Per bank write bursts
system.mem_ctrls1.perBankRdBursts::4             1252                       # Per bank write bursts
system.mem_ctrls1.perBankRdBursts::5              807                       # Per bank write bursts
system.mem_ctrls1.perBankRdBursts::6             3608                       # Per bank write bursts
system.mem_ctrls1.perBankRdBursts::7             3881                       # Per bank write bursts
system.mem_ctrls1.perBankRdBursts::8             4161                       # Per bank write bursts
system.mem_ctrls1.perBankRdBursts::9             3909                       # Per bank write bursts
system.mem_ctrls1.perBankRdBursts::10            1493                       # Per bank write bursts
system.mem_ctrls1.perBankRdBursts::11            1274                       # Per bank write bursts
system.mem_ctrls1.perBankRdBursts::12            1472                       # Per bank write bursts
system.mem_ctrls1.perBankRdBursts::13            1207                       # Per bank write bursts
system.mem_ctrls1.perBankRdBursts::14            3784                       # Per bank write bursts
system.mem_ctrls1.perBankRdBursts::15            3983                       # Per bank write bursts
system.mem_ctrls1.perBankWrBursts::0              355                       # Per bank write bursts
system.mem_ctrls1.perBankWrBursts::1              284                       # Per bank write bursts
system.mem_ctrls1.perBankWrBursts::2              282                       # Per bank write bursts
system.mem_ctrls1.perBankWrBursts::3              312                       # Per bank write bursts
system.mem_ctrls1.perBankWrBursts::4              471                       # Per bank write bursts
system.mem_ctrls1.perBankWrBursts::5              141                       # Per bank write bursts
system.mem_ctrls1.perBankWrBursts::6              455                       # Per bank write bursts
system.mem_ctrls1.perBankWrBursts::7              360                       # Per bank write bursts
system.mem_ctrls1.perBankWrBursts::8              255                       # Per bank write bursts
system.mem_ctrls1.perBankWrBursts::9              158                       # Per bank write bursts
system.mem_ctrls1.perBankWrBursts::10             167                       # Per bank write bursts
system.mem_ctrls1.perBankWrBursts::11             174                       # Per bank write bursts
system.mem_ctrls1.perBankWrBursts::12             159                       # Per bank write bursts
system.mem_ctrls1.perBankWrBursts::13             149                       # Per bank write bursts
system.mem_ctrls1.perBankWrBursts::14             271                       # Per bank write bursts
system.mem_ctrls1.perBankWrBursts::15             355                       # Per bank write bursts
system.mem_ctrls1.numRdRetry                        0                       # Number of times read queue was full causing retry
system.mem_ctrls1.numWrRetry                        0                       # Number of times write queue was full causing retry
system.mem_ctrls1.totGap                 2966955677000                       # Total gap between requests
system.mem_ctrls1.readPktSize::0                    0                       # Read request sizes (log2)
system.mem_ctrls1.readPktSize::1                    0                       # Read request sizes (log2)
system.mem_ctrls1.readPktSize::2                    0                       # Read request sizes (log2)
system.mem_ctrls1.readPktSize::3                    0                       # Read request sizes (log2)
system.mem_ctrls1.readPktSize::4                    0                       # Read request sizes (log2)
system.mem_ctrls1.readPktSize::5                    0                       # Read request sizes (log2)
system.mem_ctrls1.readPktSize::6                40303                       # Read request sizes (log2)
system.mem_ctrls1.writePktSize::0                   0                       # Write request sizes (log2)
system.mem_ctrls1.writePktSize::1                   0                       # Write request sizes (log2)
system.mem_ctrls1.writePktSize::2                   0                       # Write request sizes (log2)
system.mem_ctrls1.writePktSize::3                   0                       # Write request sizes (log2)
system.mem_ctrls1.writePktSize::4                   0                       # Write request sizes (log2)
system.mem_ctrls1.writePktSize::5                   0                       # Write request sizes (log2)
system.mem_ctrls1.writePktSize::6                4350                       # Write request sizes (log2)
system.mem_ctrls1.rdQLenPdf::0                  40149                       # What read queue length does an incoming req see
system.mem_ctrls1.rdQLenPdf::1                    138                       # What read queue length does an incoming req see
system.mem_ctrls1.rdQLenPdf::2                      0                       # What read queue length does an incoming req see
system.mem_ctrls1.rdQLenPdf::3                      0                       # What read queue length does an incoming req see
system.mem_ctrls1.rdQLenPdf::4                      0                       # What read queue length does an incoming req see
system.mem_ctrls1.rdQLenPdf::5                      0                       # What read queue length does an incoming req see
system.mem_ctrls1.rdQLenPdf::6                      0                       # What read queue length does an incoming req see
system.mem_ctrls1.rdQLenPdf::7                      0                       # What read queue length does an incoming req see
system.mem_ctrls1.rdQLenPdf::8                      0                       # What read queue length does an incoming req see
system.mem_ctrls1.rdQLenPdf::9                      0                       # What read queue length does an incoming req see
system.mem_ctrls1.rdQLenPdf::10                     0                       # What read queue length does an incoming req see
system.mem_ctrls1.rdQLenPdf::11                     0                       # What read queue length does an incoming req see
system.mem_ctrls1.rdQLenPdf::12                     0                       # What read queue length does an incoming req see
system.mem_ctrls1.rdQLenPdf::13                     0                       # What read queue length does an incoming req see
system.mem_ctrls1.rdQLenPdf::14                     0                       # What read queue length does an incoming req see
system.mem_ctrls1.rdQLenPdf::15                     0                       # What read queue length does an incoming req see
system.mem_ctrls1.rdQLenPdf::16                     0                       # What read queue length does an incoming req see
system.mem_ctrls1.rdQLenPdf::17                     0                       # What read queue length does an incoming req see
system.mem_ctrls1.rdQLenPdf::18                     0                       # What read queue length does an incoming req see
system.mem_ctrls1.rdQLenPdf::19                     0                       # What read queue length does an incoming req see
system.mem_ctrls1.rdQLenPdf::20                     0                       # What read queue length does an incoming req see
system.mem_ctrls1.rdQLenPdf::21                     0                       # What read queue length does an incoming req see
system.mem_ctrls1.rdQLenPdf::22                     0                       # What read queue length does an incoming req see
system.mem_ctrls1.rdQLenPdf::23                     0                       # What read queue length does an incoming req see
system.mem_ctrls1.rdQLenPdf::24                     0                       # What read queue length does an incoming req see
system.mem_ctrls1.rdQLenPdf::25                     0                       # What read queue length does an incoming req see
system.mem_ctrls1.rdQLenPdf::26                     0                       # What read queue length does an incoming req see
system.mem_ctrls1.rdQLenPdf::27                     0                       # What read queue length does an incoming req see
system.mem_ctrls1.rdQLenPdf::28                     0                       # What read queue length does an incoming req see
system.mem_ctrls1.rdQLenPdf::29                     0                       # What read queue length does an incoming req see
system.mem_ctrls1.rdQLenPdf::30                     0                       # What read queue length does an incoming req see
system.mem_ctrls1.rdQLenPdf::31                     0                       # What read queue length does an incoming req see
system.mem_ctrls1.wrQLenPdf::0                      0                       # What write queue length does an incoming req see
system.mem_ctrls1.wrQLenPdf::1                      0                       # What write queue length does an incoming req see
system.mem_ctrls1.wrQLenPdf::2                      0                       # What write queue length does an incoming req see
system.mem_ctrls1.wrQLenPdf::3                      0                       # What write queue length does an incoming req see
system.mem_ctrls1.wrQLenPdf::4                      0                       # What write queue length does an incoming req see
system.mem_ctrls1.wrQLenPdf::5                      0                       # What write queue length does an incoming req see
system.mem_ctrls1.wrQLenPdf::6                      0                       # What write queue length does an incoming req see
system.mem_ctrls1.wrQLenPdf::7                      0                       # What write queue length does an incoming req see
system.mem_ctrls1.wrQLenPdf::8                      0                       # What write queue length does an incoming req see
system.mem_ctrls1.wrQLenPdf::9                      0                       # What write queue length does an incoming req see
system.mem_ctrls1.wrQLenPdf::10                     0                       # What write queue length does an incoming req see
system.mem_ctrls1.wrQLenPdf::11                     0                       # What write queue length does an incoming req see
system.mem_ctrls1.wrQLenPdf::12                     0                       # What write queue length does an incoming req see
system.mem_ctrls1.wrQLenPdf::13                     0                       # What write queue length does an incoming req see
system.mem_ctrls1.wrQLenPdf::14                     0                       # What write queue length does an incoming req see
system.mem_ctrls1.wrQLenPdf::15                   226                       # What write queue length does an incoming req see
system.mem_ctrls1.wrQLenPdf::16                   244                       # What write queue length does an incoming req see
system.mem_ctrls1.wrQLenPdf::17                   245                       # What write queue length does an incoming req see
system.mem_ctrls1.wrQLenPdf::18                   252                       # What write queue length does an incoming req see
system.mem_ctrls1.wrQLenPdf::19                   244                       # What write queue length does an incoming req see
system.mem_ctrls1.wrQLenPdf::20                   242                       # What write queue length does an incoming req see
system.mem_ctrls1.wrQLenPdf::21                   241                       # What write queue length does an incoming req see
system.mem_ctrls1.wrQLenPdf::22                   240                       # What write queue length does an incoming req see
system.mem_ctrls1.wrQLenPdf::23                   243                       # What write queue length does an incoming req see
system.mem_ctrls1.wrQLenPdf::24                   241                       # What write queue length does an incoming req see
system.mem_ctrls1.wrQLenPdf::25                   241                       # What write queue length does an incoming req see
system.mem_ctrls1.wrQLenPdf::26                   240                       # What write queue length does an incoming req see
system.mem_ctrls1.wrQLenPdf::27                   244                       # What write queue length does an incoming req see
system.mem_ctrls1.wrQLenPdf::28                   240                       # What write queue length does an incoming req see
system.mem_ctrls1.wrQLenPdf::29                   240                       # What write queue length does an incoming req see
system.mem_ctrls1.wrQLenPdf::30                   240                       # What write queue length does an incoming req see
system.mem_ctrls1.wrQLenPdf::31                   240                       # What write queue length does an incoming req see
system.mem_ctrls1.wrQLenPdf::32                   240                       # What write queue length does an incoming req see
system.mem_ctrls1.wrQLenPdf::33                     2                       # What write queue length does an incoming req see
system.mem_ctrls1.wrQLenPdf::34                     2                       # What write queue length does an incoming req see
system.mem_ctrls1.wrQLenPdf::35                     2                       # What write queue length does an incoming req see
system.mem_ctrls1.wrQLenPdf::36                     1                       # What write queue length does an incoming req see
system.mem_ctrls1.wrQLenPdf::37                     0                       # What write queue length does an incoming req see
system.mem_ctrls1.wrQLenPdf::38                     0                       # What write queue length does an incoming req see
system.mem_ctrls1.wrQLenPdf::39                     0                       # What write queue length does an incoming req see
system.mem_ctrls1.wrQLenPdf::40                     0                       # What write queue length does an incoming req see
system.mem_ctrls1.wrQLenPdf::41                     0                       # What write queue length does an incoming req see
system.mem_ctrls1.wrQLenPdf::42                     0                       # What write queue length does an incoming req see
system.mem_ctrls1.wrQLenPdf::43                     0                       # What write queue length does an incoming req see
system.mem_ctrls1.wrQLenPdf::44                     0                       # What write queue length does an incoming req see
system.mem_ctrls1.wrQLenPdf::45                     0                       # What write queue length does an incoming req see
system.mem_ctrls1.wrQLenPdf::46                     0                       # What write queue length does an incoming req see
system.mem_ctrls1.wrQLenPdf::47                     0                       # What write queue length does an incoming req see
system.mem_ctrls1.wrQLenPdf::48                     0                       # What write queue length does an incoming req see
system.mem_ctrls1.wrQLenPdf::49                     0                       # What write queue length does an incoming req see
system.mem_ctrls1.wrQLenPdf::50                     0                       # What write queue length does an incoming req see
system.mem_ctrls1.wrQLenPdf::51                     0                       # What write queue length does an incoming req see
system.mem_ctrls1.wrQLenPdf::52                     0                       # What write queue length does an incoming req see
system.mem_ctrls1.wrQLenPdf::53                     0                       # What write queue length does an incoming req see
system.mem_ctrls1.wrQLenPdf::54                     0                       # What write queue length does an incoming req see
system.mem_ctrls1.wrQLenPdf::55                     0                       # What write queue length does an incoming req see
system.mem_ctrls1.wrQLenPdf::56                     0                       # What write queue length does an incoming req see
system.mem_ctrls1.wrQLenPdf::57                     0                       # What write queue length does an incoming req see
system.mem_ctrls1.wrQLenPdf::58                     0                       # What write queue length does an incoming req see
system.mem_ctrls1.wrQLenPdf::59                     0                       # What write queue length does an incoming req see
system.mem_ctrls1.wrQLenPdf::60                     0                       # What write queue length does an incoming req see
system.mem_ctrls1.wrQLenPdf::61                     0                       # What write queue length does an incoming req see
system.mem_ctrls1.wrQLenPdf::62                     0                       # What write queue length does an incoming req see
system.mem_ctrls1.wrQLenPdf::63                     0                       # What write queue length does an incoming req see
system.mem_ctrls1.bytesPerActivate::samples        13783                       # Bytes accessed per row activation
system.mem_ctrls1.bytesPerActivate::mean   207.258217                       # Bytes accessed per row activation
system.mem_ctrls1.bytesPerActivate::gmean   122.558950                       # Bytes accessed per row activation
system.mem_ctrls1.bytesPerActivate::stdev   279.092332                       # Bytes accessed per row activation
system.mem_ctrls1.bytesPerActivate::0-127         7296     52.93%     52.93% # Bytes accessed per row activation
system.mem_ctrls1.bytesPerActivate::128-255         3886     28.19%     81.13% # Bytes accessed per row activation
system.mem_ctrls1.bytesPerActivate::256-383          590      4.28%     85.41% # Bytes accessed per row activation
system.mem_ctrls1.bytesPerActivate::384-511          283      2.05%     87.46% # Bytes accessed per row activation
system.mem_ctrls1.bytesPerActivate::512-639          243      1.76%     89.23% # Bytes accessed per row activation
system.mem_ctrls1.bytesPerActivate::640-767          153      1.11%     90.34% # Bytes accessed per row activation
system.mem_ctrls1.bytesPerActivate::768-895          123      0.89%     91.23% # Bytes accessed per row activation
system.mem_ctrls1.bytesPerActivate::896-1023          140      1.02%     92.24% # Bytes accessed per row activation
system.mem_ctrls1.bytesPerActivate::1024-1151         1069      7.76%    100.00% # Bytes accessed per row activation
system.mem_ctrls1.bytesPerActivate::total        13783                       # Bytes accessed per row activation
system.mem_ctrls1.rdPerTurnAround::samples          240                       # Reads before turning the bus around for writes
system.mem_ctrls1.rdPerTurnAround::mean    187.787500                       # Reads before turning the bus around for writes
system.mem_ctrls1.rdPerTurnAround::stdev   672.409936                       # Reads before turning the bus around for writes
system.mem_ctrls1.rdPerTurnAround::0-255          223     92.92%     92.92% # Reads before turning the bus around for writes
system.mem_ctrls1.rdPerTurnAround::256-511            7      2.92%     95.83% # Reads before turning the bus around for writes
system.mem_ctrls1.rdPerTurnAround::512-767            4      1.67%     97.50% # Reads before turning the bus around for writes
system.mem_ctrls1.rdPerTurnAround::1024-1279            1      0.42%     97.92% # Reads before turning the bus around for writes
system.mem_ctrls1.rdPerTurnAround::2560-2815            1      0.42%     98.33% # Reads before turning the bus around for writes
system.mem_ctrls1.rdPerTurnAround::4352-4607            1      0.42%     98.75% # Reads before turning the bus around for writes
system.mem_ctrls1.rdPerTurnAround::4864-5119            1      0.42%     99.17% # Reads before turning the bus around for writes
system.mem_ctrls1.rdPerTurnAround::5120-5375            1      0.42%     99.58% # Reads before turning the bus around for writes
system.mem_ctrls1.rdPerTurnAround::5632-5887            1      0.42%    100.00% # Reads before turning the bus around for writes
system.mem_ctrls1.rdPerTurnAround::total          240                       # Reads before turning the bus around for writes
system.mem_ctrls1.wrPerTurnAround::samples          240                       # Writes before turning the bus around for reads
system.mem_ctrls1.wrPerTurnAround::mean     18.116667                       # Writes before turning the bus around for reads
system.mem_ctrls1.wrPerTurnAround::gmean    18.095995                       # Writes before turning the bus around for reads
system.mem_ctrls1.wrPerTurnAround::stdev     0.888639                       # Writes before turning the bus around for reads
system.mem_ctrls1.wrPerTurnAround::16              13      5.42%      5.42% # Writes before turning the bus around for reads
system.mem_ctrls1.wrPerTurnAround::17               1      0.42%      5.83% # Writes before turning the bus around for reads
system.mem_ctrls1.wrPerTurnAround::18             196     81.67%     87.50% # Writes before turning the bus around for reads
system.mem_ctrls1.wrPerTurnAround::19              13      5.42%     92.92% # Writes before turning the bus around for reads
system.mem_ctrls1.wrPerTurnAround::20              14      5.83%     98.75% # Writes before turning the bus around for reads
system.mem_ctrls1.wrPerTurnAround::21               1      0.42%     99.17% # Writes before turning the bus around for reads
system.mem_ctrls1.wrPerTurnAround::23               1      0.42%     99.58% # Writes before turning the bus around for reads
system.mem_ctrls1.wrPerTurnAround::24               1      0.42%    100.00% # Writes before turning the bus around for reads
system.mem_ctrls1.wrPerTurnAround::total          240                       # Writes before turning the bus around for reads
system.mem_ctrls1.totQLat                   266301000                       # Total ticks spent queuing
system.mem_ctrls1.totMemAccLat             1021682250                       # Total ticks spent from burst creation until serviced by the DRAM
system.mem_ctrls1.totBusLat                 201435000                       # Total ticks spent in databus transfers
system.mem_ctrls1.avgQLat                     6610.10                       # Average queueing delay per DRAM burst
system.mem_ctrls1.avgBusLat                   5000.00                       # Average bus latency per DRAM burst
system.mem_ctrls1.avgMemAccLat               25360.10                       # Average memory access latency per DRAM burst
system.mem_ctrls1.avgRdBW                        0.87                       # Average DRAM read bandwidth in MiByte/s
system.mem_ctrls1.avgWrBW                        0.09                       # Average achieved write bandwidth in MiByte/s
system.mem_ctrls1.avgRdBWSys                     0.87                       # Average system read bandwidth in MiByte/s
system.mem_ctrls1.avgWrBWSys                     0.09                       # Average system write bandwidth in MiByte/s
system.mem_ctrls1.peakBW                     12800.00                       # Theoretical peak bandwidth in MiByte/s
system.mem_ctrls1.busUtil                        0.01                       # Data bus utilization in percentage
system.mem_ctrls1.busUtilRead                    0.01                       # Data bus utilization in percentage for reads
system.mem_ctrls1.busUtilWrite                   0.00                       # Data bus utilization in percentage for writes
system.mem_ctrls1.avgRdQLen                      1.00                       # Average read queue length when enqueuing
system.mem_ctrls1.avgWrQLen                     24.80                       # Average write queue length when enqueuing
system.mem_ctrls1.readRowHits                   28853                       # Number of row buffer hits during reads
system.mem_ctrls1.writeRowHits                   1999                       # Number of row buffer hits during writes
system.mem_ctrls1.readRowHitRate                71.62                       # Row buffer hit rate for reads
system.mem_ctrls1.writeRowHitRate               45.95                       # Row buffer hit rate for writes
system.mem_ctrls1.avgGap                  66444710.93                       # Average gap between requests
system.mem_ctrls1.pageHitRate                   69.12                       # Row buffer hit rate, read and write combined
system.mem_ctrls1_0.actEnergy                56873880                       # Energy for activate commands per rank (pJ)
system.mem_ctrls1_0.preEnergy                31032375                       # Energy for precharge commands per rank (pJ)
system.mem_ctrls1_0.readEnergy              171280200                       # Energy for read commands per rank (pJ)
system.mem_ctrls1_0.writeEnergy              17236800                       # Energy for write commands per rank (pJ)
system.mem_ctrls1_0.refreshEnergy        194054290560                       # Energy for refresh commands per rank (pJ)
system.mem_ctrls1_0.actBackEnergy         76836042180                       # Energy for active background per rank (pJ)
system.mem_ctrls1_0.preBackEnergy        1715227797000                       # Energy for precharge background per rank (pJ)
system.mem_ctrls1_0.totalEnergy          1986394552995                       # Total energy per rank (pJ)
system.mem_ctrls1_0.averagePower           668.584159                       # Core power per rank (mW)
system.mem_ctrls1_0.memoryStateTime::IDLE 2851541441500                       # Time in different power states
system.mem_ctrls1_0.memoryStateTime::REF  99073260000                       # Time in different power states
system.mem_ctrls1_0.memoryStateTime::PRE_PDN            0                       # Time in different power states
system.mem_ctrls1_0.memoryStateTime::ACT  16343642000                       # Time in different power states
system.mem_ctrls1_0.memoryStateTime::ACT_PDN            0                       # Time in different power states
system.mem_ctrls1_1.actEnergy                60729480                       # Energy for activate commands per rank (pJ)
system.mem_ctrls1_1.preEnergy                33136125                       # Energy for precharge commands per rank (pJ)
system.mem_ctrls1_1.readEnergy              180726000                       # Energy for read commands per rank (pJ)
system.mem_ctrls1_1.writeEnergy              10938240                       # Energy for write commands per rank (pJ)
system.mem_ctrls1_1.refreshEnergy        194054290560                       # Energy for refresh commands per rank (pJ)
system.mem_ctrls1_1.actBackEnergy         77969330145                       # Energy for active background per rank (pJ)
system.mem_ctrls1_1.preBackEnergy        1714233684750                       # Energy for precharge background per rank (pJ)
system.mem_ctrls1_1.totalEnergy          1986542835300                       # Total energy per rank (pJ)
system.mem_ctrls1_1.averagePower           668.634068                       # Core power per rank (mW)
system.mem_ctrls1_1.memoryStateTime::IDLE 2849624275250                       # Time in different power states
system.mem_ctrls1_1.memoryStateTime::REF  99073260000                       # Time in different power states
system.mem_ctrls1_1.memoryStateTime::PRE_PDN            0                       # Time in different power states
system.mem_ctrls1_1.memoryStateTime::ACT  18260813500                       # Time in different power states
system.mem_ctrls1_1.memoryStateTime::ACT_PDN            0                       # Time in different power states
system.mem_ctrls2.bytes_read::ruby.dir_cntrl2      2577216                       # Number of bytes read from this memory
system.mem_ctrls2.bytes_read::total           2577216                       # Number of bytes read from this memory
system.mem_ctrls2.bytes_written::ruby.dir_cntrl2       275264                       # Number of bytes written to this memory
system.mem_ctrls2.bytes_written::total         275264                       # Number of bytes written to this memory
system.mem_ctrls2.num_reads::ruby.dir_cntrl2        40269                       # Number of read requests responded to by this memory
system.mem_ctrls2.num_reads::total              40269                       # Number of read requests responded to by this memory
system.mem_ctrls2.num_writes::ruby.dir_cntrl2         4301                       # Number of write requests responded to by this memory
system.mem_ctrls2.num_writes::total              4301                       # Number of write requests responded to by this memory
system.mem_ctrls2.bw_read::ruby.dir_cntrl2       868639                       # Total read bandwidth from this memory (bytes/s)
system.mem_ctrls2.bw_read::total               868639                       # Total read bandwidth from this memory (bytes/s)
system.mem_ctrls2.bw_write::ruby.dir_cntrl2        92776                       # Write bandwidth from this memory (bytes/s)
system.mem_ctrls2.bw_write::total               92776                       # Write bandwidth from this memory (bytes/s)
system.mem_ctrls2.bw_total::ruby.dir_cntrl2       961415                       # Total bandwidth to/from this memory (bytes/s)
system.mem_ctrls2.bw_total::total              961415                       # Total bandwidth to/from this memory (bytes/s)
system.mem_ctrls2.readReqs                      40269                       # Number of read requests accepted
system.mem_ctrls2.writeReqs                      4301                       # Number of write requests accepted
system.mem_ctrls2.readBursts                    40269                       # Number of DRAM read bursts, including those serviced by the write queue
system.mem_ctrls2.writeBursts                    4301                       # Number of DRAM write bursts, including those merged in the write queue
system.mem_ctrls2.bytesReadDRAM               2575872                       # Total number of bytes read from DRAM
system.mem_ctrls2.bytesReadWrQ                   1344                       # Total number of bytes read from write queue
system.mem_ctrls2.bytesWritten                 274624                       # Total number of bytes written to DRAM
system.mem_ctrls2.bytesReadSys                2577216                       # Total read bytes from the system interface side
system.mem_ctrls2.bytesWrittenSys              275264                       # Total written bytes from the system interface side
system.mem_ctrls2.servicedByWrQ                    21                       # Number of DRAM read bursts serviced by the write queue
system.mem_ctrls2.mergedWrBursts                    0                       # Number of DRAM write bursts merged with an existing one
system.mem_ctrls2.neitherReadNorWriteReqs            0                       # Number of requests that are neither read nor write
system.mem_ctrls2.perBankRdBursts::0             4042                       # Per bank write bursts
system.mem_ctrls2.perBankRdBursts::1             3450                       # Per bank write bursts
system.mem_ctrls2.perBankRdBursts::2              989                       # Per bank write bursts
system.mem_ctrls2.perBankRdBursts::3              901                       # Per bank write bursts
system.mem_ctrls2.perBankRdBursts::4             1256                       # Per bank write bursts
system.mem_ctrls2.perBankRdBursts::5              823                       # Per bank write bursts
system.mem_ctrls2.perBankRdBursts::6             3629                       # Per bank write bursts
system.mem_ctrls2.perBankRdBursts::7             3874                       # Per bank write bursts
system.mem_ctrls2.perBankRdBursts::8             4161                       # Per bank write bursts
system.mem_ctrls2.perBankRdBursts::9             3922                       # Per bank write bursts
system.mem_ctrls2.perBankRdBursts::10            1455                       # Per bank write bursts
system.mem_ctrls2.perBankRdBursts::11            1260                       # Per bank write bursts
system.mem_ctrls2.perBankRdBursts::12            1463                       # Per bank write bursts
system.mem_ctrls2.perBankRdBursts::13            1200                       # Per bank write bursts
system.mem_ctrls2.perBankRdBursts::14            3787                       # Per bank write bursts
system.mem_ctrls2.perBankRdBursts::15            4036                       # Per bank write bursts
system.mem_ctrls2.perBankWrBursts::0              363                       # Per bank write bursts
system.mem_ctrls2.perBankWrBursts::1              274                       # Per bank write bursts
system.mem_ctrls2.perBankWrBursts::2              255                       # Per bank write bursts
system.mem_ctrls2.perBankWrBursts::3              318                       # Per bank write bursts
system.mem_ctrls2.perBankWrBursts::4              470                       # Per bank write bursts
system.mem_ctrls2.perBankWrBursts::5              135                       # Per bank write bursts
system.mem_ctrls2.perBankWrBursts::6              450                       # Per bank write bursts
system.mem_ctrls2.perBankWrBursts::7              360                       # Per bank write bursts
system.mem_ctrls2.perBankWrBursts::8              256                       # Per bank write bursts
system.mem_ctrls2.perBankWrBursts::9              148                       # Per bank write bursts
system.mem_ctrls2.perBankWrBursts::10             147                       # Per bank write bursts
system.mem_ctrls2.perBankWrBursts::11             163                       # Per bank write bursts
system.mem_ctrls2.perBankWrBursts::12             151                       # Per bank write bursts
system.mem_ctrls2.perBankWrBursts::13             134                       # Per bank write bursts
system.mem_ctrls2.perBankWrBursts::14             286                       # Per bank write bursts
system.mem_ctrls2.perBankWrBursts::15             381                       # Per bank write bursts
system.mem_ctrls2.numRdRetry                        0                       # Number of times read queue was full causing retry
system.mem_ctrls2.numWrRetry                        0                       # Number of times write queue was full causing retry
system.mem_ctrls2.totGap                 2966953351500                       # Total gap between requests
system.mem_ctrls2.readPktSize::0                    0                       # Read request sizes (log2)
system.mem_ctrls2.readPktSize::1                    0                       # Read request sizes (log2)
system.mem_ctrls2.readPktSize::2                    0                       # Read request sizes (log2)
system.mem_ctrls2.readPktSize::3                    0                       # Read request sizes (log2)
system.mem_ctrls2.readPktSize::4                    0                       # Read request sizes (log2)
system.mem_ctrls2.readPktSize::5                    0                       # Read request sizes (log2)
system.mem_ctrls2.readPktSize::6                40269                       # Read request sizes (log2)
system.mem_ctrls2.writePktSize::0                   0                       # Write request sizes (log2)
system.mem_ctrls2.writePktSize::1                   0                       # Write request sizes (log2)
system.mem_ctrls2.writePktSize::2                   0                       # Write request sizes (log2)
system.mem_ctrls2.writePktSize::3                   0                       # Write request sizes (log2)
system.mem_ctrls2.writePktSize::4                   0                       # Write request sizes (log2)
system.mem_ctrls2.writePktSize::5                   0                       # Write request sizes (log2)
system.mem_ctrls2.writePktSize::6                4301                       # Write request sizes (log2)
system.mem_ctrls2.rdQLenPdf::0                  40093                       # What read queue length does an incoming req see
system.mem_ctrls2.rdQLenPdf::1                    155                       # What read queue length does an incoming req see
system.mem_ctrls2.rdQLenPdf::2                      0                       # What read queue length does an incoming req see
system.mem_ctrls2.rdQLenPdf::3                      0                       # What read queue length does an incoming req see
system.mem_ctrls2.rdQLenPdf::4                      0                       # What read queue length does an incoming req see
system.mem_ctrls2.rdQLenPdf::5                      0                       # What read queue length does an incoming req see
system.mem_ctrls2.rdQLenPdf::6                      0                       # What read queue length does an incoming req see
system.mem_ctrls2.rdQLenPdf::7                      0                       # What read queue length does an incoming req see
system.mem_ctrls2.rdQLenPdf::8                      0                       # What read queue length does an incoming req see
system.mem_ctrls2.rdQLenPdf::9                      0                       # What read queue length does an incoming req see
system.mem_ctrls2.rdQLenPdf::10                     0                       # What read queue length does an incoming req see
system.mem_ctrls2.rdQLenPdf::11                     0                       # What read queue length does an incoming req see
system.mem_ctrls2.rdQLenPdf::12                     0                       # What read queue length does an incoming req see
system.mem_ctrls2.rdQLenPdf::13                     0                       # What read queue length does an incoming req see
system.mem_ctrls2.rdQLenPdf::14                     0                       # What read queue length does an incoming req see
system.mem_ctrls2.rdQLenPdf::15                     0                       # What read queue length does an incoming req see
system.mem_ctrls2.rdQLenPdf::16                     0                       # What read queue length does an incoming req see
system.mem_ctrls2.rdQLenPdf::17                     0                       # What read queue length does an incoming req see
system.mem_ctrls2.rdQLenPdf::18                     0                       # What read queue length does an incoming req see
system.mem_ctrls2.rdQLenPdf::19                     0                       # What read queue length does an incoming req see
system.mem_ctrls2.rdQLenPdf::20                     0                       # What read queue length does an incoming req see
system.mem_ctrls2.rdQLenPdf::21                     0                       # What read queue length does an incoming req see
system.mem_ctrls2.rdQLenPdf::22                     0                       # What read queue length does an incoming req see
system.mem_ctrls2.rdQLenPdf::23                     0                       # What read queue length does an incoming req see
system.mem_ctrls2.rdQLenPdf::24                     0                       # What read queue length does an incoming req see
system.mem_ctrls2.rdQLenPdf::25                     0                       # What read queue length does an incoming req see
system.mem_ctrls2.rdQLenPdf::26                     0                       # What read queue length does an incoming req see
system.mem_ctrls2.rdQLenPdf::27                     0                       # What read queue length does an incoming req see
system.mem_ctrls2.rdQLenPdf::28                     0                       # What read queue length does an incoming req see
system.mem_ctrls2.rdQLenPdf::29                     0                       # What read queue length does an incoming req see
system.mem_ctrls2.rdQLenPdf::30                     0                       # What read queue length does an incoming req see
system.mem_ctrls2.rdQLenPdf::31                     0                       # What read queue length does an incoming req see
system.mem_ctrls2.wrQLenPdf::0                      0                       # What write queue length does an incoming req see
system.mem_ctrls2.wrQLenPdf::1                      0                       # What write queue length does an incoming req see
system.mem_ctrls2.wrQLenPdf::2                      0                       # What write queue length does an incoming req see
system.mem_ctrls2.wrQLenPdf::3                      0                       # What write queue length does an incoming req see
system.mem_ctrls2.wrQLenPdf::4                      0                       # What write queue length does an incoming req see
system.mem_ctrls2.wrQLenPdf::5                      0                       # What write queue length does an incoming req see
system.mem_ctrls2.wrQLenPdf::6                      0                       # What write queue length does an incoming req see
system.mem_ctrls2.wrQLenPdf::7                      0                       # What write queue length does an incoming req see
system.mem_ctrls2.wrQLenPdf::8                      0                       # What write queue length does an incoming req see
system.mem_ctrls2.wrQLenPdf::9                      0                       # What write queue length does an incoming req see
system.mem_ctrls2.wrQLenPdf::10                     0                       # What write queue length does an incoming req see
system.mem_ctrls2.wrQLenPdf::11                     0                       # What write queue length does an incoming req see
system.mem_ctrls2.wrQLenPdf::12                     0                       # What write queue length does an incoming req see
system.mem_ctrls2.wrQLenPdf::13                     0                       # What write queue length does an incoming req see
system.mem_ctrls2.wrQLenPdf::14                     0                       # What write queue length does an incoming req see
system.mem_ctrls2.wrQLenPdf::15                   226                       # What write queue length does an incoming req see
system.mem_ctrls2.wrQLenPdf::16                   242                       # What write queue length does an incoming req see
system.mem_ctrls2.wrQLenPdf::17                   242                       # What write queue length does an incoming req see
system.mem_ctrls2.wrQLenPdf::18                   249                       # What write queue length does an incoming req see
system.mem_ctrls2.wrQLenPdf::19                   241                       # What write queue length does an incoming req see
system.mem_ctrls2.wrQLenPdf::20                   242                       # What write queue length does an incoming req see
system.mem_ctrls2.wrQLenPdf::21                   240                       # What write queue length does an incoming req see
system.mem_ctrls2.wrQLenPdf::22                   238                       # What write queue length does an incoming req see
system.mem_ctrls2.wrQLenPdf::23                   239                       # What write queue length does an incoming req see
system.mem_ctrls2.wrQLenPdf::24                   238                       # What write queue length does an incoming req see
system.mem_ctrls2.wrQLenPdf::25                   238                       # What write queue length does an incoming req see
system.mem_ctrls2.wrQLenPdf::26                   237                       # What write queue length does an incoming req see
system.mem_ctrls2.wrQLenPdf::27                   240                       # What write queue length does an incoming req see
system.mem_ctrls2.wrQLenPdf::28                   237                       # What write queue length does an incoming req see
system.mem_ctrls2.wrQLenPdf::29                   237                       # What write queue length does an incoming req see
system.mem_ctrls2.wrQLenPdf::30                   237                       # What write queue length does an incoming req see
system.mem_ctrls2.wrQLenPdf::31                   237                       # What write queue length does an incoming req see
system.mem_ctrls2.wrQLenPdf::32                   237                       # What write queue length does an incoming req see
[...]
system.ruby.L1Cache_Controller.O.Fwd_GETS |       28681     73.51%     73.51% |        1531      3.92%     77.43% |        7848     20.11%     97.54% |         958      2.46%    100.00%
system.ruby.L1Cache_Controller.O.Fwd_GETS::total        39018                      
system.ruby.L1Cache_Controller.M.Load    |      110336      3.84%      3.84% |     1342383     46.74%     50.58% |       75232      2.62%     53.20% |     1344050     46.80%    100.00%
system.ruby.L1Cache_Controller.M.Load::total      2872001                      
system.ruby.L1Cache_Controller.M.Store   |        6800      5.42%      5.42% |       64614     51.51%     56.93% |        4866      3.88%     60.81% |       49161     39.19%    100.00%
system.ruby.L1Cache_Controller.M.Store::total       125441                      
system.ruby.L1Cache_Controller.M.L1_Replacement |       11915      1.69%      1.69% |      334802     47.59%     49.28% |        3699      0.53%     49.81% |      353139     50.19%    100.00%
system.ruby.L1Cache_Controller.M.L1_Replacement::total       703555                      
system.ruby.L1Cache_Controller.M.Fwd_GETX |         364     19.45%     19.45% |         672     35.92%     55.37% |         571     30.52%     85.89% |         264     14.11%    100.00%
system.ruby.L1Cache_Controller.M.Fwd_GETX::total         1871                      
system.ruby.L1Cache_Controller.M.Fwd_GETS |        2642     17.08%     17.08% |        2587     16.73%     33.81% |        8241     53.28%     87.09% |        1997     12.91%    100.00%
system.ruby.L1Cache_Controller.M.Fwd_GETS::total        15467                      
system.ruby.L1Cache_Controller.M_W.Load  |       23033      7.03%      7.03% |      164083     50.10%     57.13% |       12745      3.89%     61.02% |      127665     38.98%    100.00%
system.ruby.L1Cache_Controller.M_W.Load::total       327526                      
system.ruby.L1Cache_Controller.M_W.Store |        1662      1.83%      1.83% |       51542     56.76%     58.59% |        1294      1.43%     60.02% |       36303     39.98%    100.00%
system.ruby.L1Cache_Controller.M_W.Store::total        90801                      
system.ruby.L1Cache_Controller.M_W.L1_Replacement |          28     90.32%     90.32% |           0      0.00%     90.32% |           0      0.00%     90.32% |           3      9.68%    100.00%
system.ruby.L1Cache_Controller.M_W.L1_Replacement::total           31                      
system.ruby.L1Cache_Controller.M_W.Fwd_GETX |           8      8.16%      8.16% |           3      3.06%     11.22% |          78     79.59%     90.82% |           9      9.18%    100.00%
system.ruby.L1Cache_Controller.M_W.Fwd_GETX::total           98                      
system.ruby.L1Cache_Controller.M_W.Fwd_GETS |          20      3.40%      3.40% |         270     45.84%     49.24% |         230     39.05%     88.29% |          69     11.71%    100.00%
system.ruby.L1Cache_Controller.M_W.Fwd_GETS::total          589                      
system.ruby.L1Cache_Controller.M_W.Use_Timeout |       21696      2.56%      2.56% |      402643     47.57%     50.14% |       17370      2.05%     52.19% |      404677     47.81%    100.00%
system.ruby.L1Cache_Controller.M_W.Use_Timeout::total       846386                      
system.ruby.L1Cache_Controller.MM.Load   |     8013663      3.90%      3.90% |    97848668     47.60%     51.50% |      726383      0.35%     51.86% |    98955986     48.14%    100.00%
system.ruby.L1Cache_Controller.MM.Load::total    205544700                      
system.ruby.L1Cache_Controller.MM.Store  |     7074501      4.14%      4.14% |    81682870     47.84%     51.98% |      720095      0.42%     52.40% |    81271079     47.60%    100.00%
system.ruby.L1Cache_Controller.MM.Store::total    170748545                      
system.ruby.L1Cache_Controller.MM.L1_Replacement |       30754      3.39%      3.39% |      463463     51.15%     54.54% |       15210      1.68%     56.22% |      396691     43.78%    100.00%
system.ruby.L1Cache_Controller.MM.L1_Replacement::total       906118                      
system.ruby.L1Cache_Controller.MM.Fwd_GETX |        1254     17.01%     17.01% |        2645     35.88%     52.89% |        1992     27.02%     79.91% |        1481     20.09%    100.00%
system.ruby.L1Cache_Controller.MM.Fwd_GETX::total         7372                      
system.ruby.L1Cache_Controller.MM.Fwd_GETS |        7360     36.12%     36.12% |        4945     24.27%     60.38% |        4278     20.99%     81.38% |        3795     18.62%    100.00%
system.ruby.L1Cache_Controller.MM.Fwd_GETS::total        20378                      
system.ruby.L1Cache_Controller.MM.Fwd_DMA |         256     27.23%     27.23% |         346     36.81%     64.04% |         184     19.57%     83.62% |         154     16.38%    100.00%
system.ruby.L1Cache_Controller.MM.Fwd_DMA::total          940                      
system.ruby.L1Cache_Controller.MM_W.Load |        2545      1.69%      1.69% |       81969     54.52%     56.21% |        2597      1.73%     57.94% |       63241     42.06%    100.00%
system.ruby.L1Cache_Controller.MM_W.Load::total       150352                      
system.ruby.L1Cache_Controller.MM_W.Store |      105384      7.37%      7.37% |      684224     47.83%     55.20% |       55778      3.90%     59.10% |      585072     40.90%    100.00%
system.ruby.L1Cache_Controller.MM_W.Store::total      1430458                      
system.ruby.L1Cache_Controller.MM_W.L1_Replacement |           3     33.33%     33.33% |           4     44.44%     77.78% |           0      0.00%     77.78% |           2     22.22%    100.00%
system.ruby.L1Cache_Controller.MM_W.L1_Replacement::total            9                      
system.ruby.L1Cache_Controller.MM_W.Fwd_GETX |           0      0.00%      0.00% |          19     38.78%     38.78% |          27     55.10%     93.88% |           3      6.12%    100.00%
system.ruby.L1Cache_Controller.MM_W.Fwd_GETX::total           49                      
system.ruby.L1Cache_Controller.MM_W.Fwd_GETS |         845     26.99%     26.99% |         581     18.56%     45.54% |         803     25.65%     71.19% |         902     28.81%    100.00%
system.ruby.L1Cache_Controller.MM_W.Fwd_GETS::total         3131                      
system.ruby.L1Cache_Controller.MM_W.Use_Timeout |       32665      4.04%      4.04% |      406281     50.25%     54.29% |       16680      2.06%     56.35% |      352953     43.65%    100.00%
system.ruby.L1Cache_Controller.MM_W.Use_Timeout::total       808579                      
system.ruby.L1Cache_Controller.IM.Ack    |        7779     39.89%     39.89% |        4279     21.94%     61.84% |        4241     21.75%     83.58% |        3201     16.42%    100.00%
system.ruby.L1Cache_Controller.IM.Ack::total        19500                      
system.ruby.L1Cache_Controller.IM.Exclusive_Data |       22691      3.29%      3.29% |      343279     49.79%     53.08% |       13240      1.92%     55.00% |      310228     45.00%    100.00%
system.ruby.L1Cache_Controller.IM.Exclusive_Data::total       689438                      
system.ruby.L1Cache_Controller.SM.Inv    |           0      0.00%      0.00% |           0      0.00%      0.00% |           0      0.00%      0.00% |           1    100.00%    100.00%
system.ruby.L1Cache_Controller.SM.Inv::total            1                      
system.ruby.L1Cache_Controller.SM.Ack    |        7470     55.23%     55.23% |        2232     16.50%     71.73% |        1856     13.72%     85.45% |        1968     14.55%    100.00%
system.ruby.L1Cache_Controller.SM.Ack::total        13526                      
system.ruby.L1Cache_Controller.SM.Exclusive_Data |        8289     29.61%     29.61% |       11255     40.21%     69.82% |        2059      7.36%     77.18% |        6387     22.82%    100.00%
system.ruby.L1Cache_Controller.SM.Exclusive_Data::total        27990                      
system.ruby.L1Cache_Controller.OM.Own_GETX |          23      6.57%      6.57% |         205     58.57%     65.14% |          87     24.86%     90.00% |          35     10.00%    100.00%
system.ruby.L1Cache_Controller.OM.Own_GETX::total          350                      
system.ruby.L1Cache_Controller.OM.Ack    |         461     21.06%     21.06% |         945     43.17%     64.23% |         597     27.27%     91.50% |         186      8.50%    100.00%
system.ruby.L1Cache_Controller.OM.Ack::total         2189                      
system.ruby.L1Cache_Controller.OM.All_acks |       31003      4.32%      4.32% |      354739     49.42%     53.74% |       15386      2.14%     55.88% |      316650     44.12%    100.00%
system.ruby.L1Cache_Controller.OM.All_acks::total       717778                      
system.ruby.L1Cache_Controller.IS.Data   |      220401      2.01%      2.01% |     5572087     50.82%     52.83% |       66536      0.61%     53.44% |     5104719     46.56%    100.00%
system.ruby.L1Cache_Controller.IS.Data::total     10963743                      
system.ruby.L1Cache_Controller.IS.Exclusive_Data |       23358      2.49%      2.49% |      454185     48.46%     50.95% |       18664      1.99%     52.95% |      440980     47.05%    100.00%
system.ruby.L1Cache_Controller.IS.Exclusive_Data::total       937187                      
system.ruby.L1Cache_Controller.SI.Load   |         196     28.20%     28.20% |         202     29.06%     57.27% |           4      0.58%     57.84% |         293     42.16%    100.00%
system.ruby.L1Cache_Controller.SI.Load::total          695                      
system.ruby.L1Cache_Controller.SI.Ifetch |           8    100.00%    100.00% |           0      0.00%    100.00% |           0      0.00%    100.00% |           0      0.00%    100.00%
system.ruby.L1Cache_Controller.SI.Ifetch::total            8                      
system.ruby.L1Cache_Controller.SI.Writeback_Ack |      198613      1.83%      1.83% |     5494955     50.76%     52.59% |       59460      0.55%     53.14% |     5072811     46.86%    100.00%
system.ruby.L1Cache_Controller.SI.Writeback_Ack::total     10825839                      
system.ruby.L1Cache_Controller.SI.Writeback_Ack_Data |       11197     11.43%     11.43% |       61304     62.59%     74.03% |        4010      4.09%     78.12% |       21428     21.88%    100.00%
system.ruby.L1Cache_Controller.SI.Writeback_Ack_Data::total        97939                      
system.ruby.L1Cache_Controller.OI.Writeback_Ack_Data |         215     18.52%     18.52% |         296     25.50%     44.01% |         394     33.94%     77.95% |         256     22.05%    100.00%
system.ruby.L1Cache_Controller.OI.Writeback_Ack_Data::total         1161                      
system.ruby.L1Cache_Controller.MI.Load   |          13     27.08%     27.08% |          34     70.83%     97.92% |           0      0.00%     97.92% |           1      2.08%    100.00%
system.ruby.L1Cache_Controller.MI.Load::total           48                      
system.ruby.L1Cache_Controller.MI.Writeback_Ack_Data |       42669      2.65%      2.65% |      798265     49.59%     52.24% |       18909      1.17%     53.42% |      749830     46.58%    100.00%
system.ruby.L1Cache_Controller.MI.Writeback_Ack_Data::total      1609673                      
system.ruby.L2Cache_Controller.L1_GETS       11901790      0.00%      0.00%
system.ruby.L2Cache_Controller.L1_GETX         717804      0.00%      0.00%
system.ruby.L2Cache_Controller.L1_PUTO           1161      0.00%      0.00%
system.ruby.L2Cache_Controller.L1_PUTX        1609673      0.00%      0.00%
system.ruby.L2Cache_Controller.L1_PUTS_only     10457631      0.00%      0.00%
system.ruby.L2Cache_Controller.L1_PUTS         466152      0.00%      0.00%
system.ruby.L2Cache_Controller.Fwd_GETX           123      0.00%      0.00%
system.ruby.L2Cache_Controller.Fwd_DMA           1257      0.00%      0.00%
system.ruby.L2Cache_Controller.Inv                  1      0.00%      0.00%
system.ruby.L2Cache_Controller.All_Acks         47525      0.00%      0.00%
system.ruby.L2Cache_Controller.Data            160872      0.00%      0.00%
system.ruby.L2Cache_Controller.Data_Exclusive           37      0.00%      0.00%
system.ruby.L2Cache_Controller.L1_WBCLEANDATA        97939      0.00%      0.00%
system.ruby.L2Cache_Controller.L1_WBDIRTYDATA      1610834      0.00%      0.00%
system.ruby.L2Cache_Controller.Writeback_Ack        37138      0.00%      0.00%
system.ruby.L2Cache_Controller.Unblock       21789582      0.00%      0.00%
system.ruby.L2Cache_Controller.Exclusive_Unblock      1654965      0.00%      0.00%
system.ruby.L2Cache_Controller.DmaAck             940      0.00%      0.00%
system.ruby.L2Cache_Controller.L2_Replacement       123976      0.00%      0.00%
system.ruby.L2Cache_Controller.NP.L1_GETS       113340      0.00%      0.00%
system.ruby.L2Cache_Controller.NP.L1_GETX        25450      0.00%      0.00%
system.ruby.L2Cache_Controller.I.L1_GETS            7      0.00%      0.00%
system.ruby.L2Cache_Controller.ILS.L1_GETS         3602      0.00%      0.00%
system.ruby.L2Cache_Controller.ILS.L1_GETX        18171      0.00%      0.00%
system.ruby.L2Cache_Controller.ILS.L1_PUTS_only        94540      0.00%      0.00%
system.ruby.L2Cache_Controller.ILS.L1_PUTS         3399      0.00%      0.00%
system.ruby.L2Cache_Controller.ILX.L1_GETS        35845      0.00%      0.00%
system.ruby.L2Cache_Controller.ILX.L1_GETX         9218      0.00%      0.00%
system.ruby.L2Cache_Controller.ILX.L1_PUTX      1609673      0.00%      0.00%
system.ruby.L2Cache_Controller.ILX.Fwd_GETX           25      0.00%      0.00%
system.ruby.L2Cache_Controller.ILX.Fwd_DMA          940      0.00%      0.00%
system.ruby.L2Cache_Controller.ILOX.L1_GETS        31200      0.00%      0.00%
system.ruby.L2Cache_Controller.ILOX.L1_GETX          855      0.00%      0.00%
system.ruby.L2Cache_Controller.ILOX.L1_PUTO          635      0.00%      0.00%
system.ruby.L2Cache_Controller.ILOX.Fwd_GETX           12      0.00%      0.00%
system.ruby.L2Cache_Controller.ILOSX.L1_GETS         7818      0.00%      0.00%
system.ruby.L2Cache_Controller.ILOSX.L1_GETX        13452      0.00%      0.00%
system.ruby.L2Cache_Controller.ILOSX.L1_PUTO          526      0.00%      0.00%
system.ruby.L2Cache_Controller.ILOSX.L1_PUTS_only        32722      0.00%      0.00%
system.ruby.L2Cache_Controller.ILOSX.L1_PUTS         2023      0.00%      0.00%
system.ruby.L2Cache_Controller.S.L1_GETS     10331335      0.00%      0.00%
system.ruby.L2Cache_Controller.S.L1_GETX         2304      0.00%      0.00%
system.ruby.L2Cache_Controller.S.Inv                1      0.00%      0.00%
system.ruby.L2Cache_Controller.S.L2_Replacement        84059      0.00%      0.00%
system.ruby.L2Cache_Controller.OLSX.L1_GETS         7551      0.00%      0.00%
system.ruby.L2Cache_Controller.OLSX.L1_GETX          165      0.00%      0.00%
system.ruby.L2Cache_Controller.OLSX.L1_PUTS_only          331      0.00%      0.00%
system.ruby.L2Cache_Controller.OLSX.L1_PUTS         7438      0.00%      0.00%
system.ruby.L2Cache_Controller.OLSX.L2_Replacement           62      0.00%      0.00%
system.ruby.L2Cache_Controller.SLS.L1_GETS       453423      0.00%      0.00%
system.ruby.L2Cache_Controller.SLS.L1_GETX         1600      0.00%      0.00%
system.ruby.L2Cache_Controller.SLS.L1_PUTS_only     10330037      0.00%      0.00%
system.ruby.L2Cache_Controller.SLS.L1_PUTS       453288      0.00%      0.00%
system.ruby.L2Cache_Controller.SLS.L2_Replacement         2778      0.00%      0.00%
system.ruby.L2Cache_Controller.M.L1_GETS       916809      0.00%      0.00%
system.ruby.L2Cache_Controller.M.L1_GETX       646563      0.00%      0.00%
system.ruby.L2Cache_Controller.M.Fwd_GETX           86      0.00%      0.00%
system.ruby.L2Cache_Controller.M.Fwd_DMA          317      0.00%      0.00%
system.ruby.L2Cache_Controller.M.L2_Replacement        37077      0.00%      0.00%
system.ruby.L2Cache_Controller.IFGX.Data_Exclusive           37      0.00%      0.00%
system.ruby.L2Cache_Controller.ILOXW.L1_WBDIRTYDATA          635      0.00%      0.00%
system.ruby.L2Cache_Controller.ILOXW.Unblock        32722      0.00%      0.00%
system.ruby.L2Cache_Controller.ILOSXW.L1_WBDIRTYDATA          526      0.00%      0.00%
system.ruby.L2Cache_Controller.ILOSXW.Unblock         2023      0.00%      0.00%
system.ruby.L2Cache_Controller.SLSW.L1_GETS            3      0.00%      0.00%
system.ruby.L2Cache_Controller.SLSW.L1_PUTS            2      0.00%      0.00%
system.ruby.L2Cache_Controller.SLSW.Unblock       453288      0.00%      0.00%
system.ruby.L2Cache_Controller.ILSW.L1_WBCLEANDATA         3399      0.00%      0.00%
system.ruby.L2Cache_Controller.IW.L1_WBCLEANDATA        94540      0.00%      0.00%
system.ruby.L2Cache_Controller.SW.L1_GETS            1      0.00%      0.00%
system.ruby.L2Cache_Controller.SW.Unblock     10330037      0.00%      0.00%
system.ruby.L2Cache_Controller.OXW.Unblock          331      0.00%      0.00%
system.ruby.L2Cache_Controller.OLSXW.Unblock         7438      0.00%      0.00%
system.ruby.L2Cache_Controller.ILXW.L1_GETS            1      0.00%      0.00%
system.ruby.L2Cache_Controller.ILXW.L1_GETX            2      0.00%      0.00%
system.ruby.L2Cache_Controller.ILXW.L1_WBDIRTYDATA      1609673      0.00%      0.00%
system.ruby.L2Cache_Controller.IFLS.L1_GETS            6      0.00%      0.00%
system.ruby.L2Cache_Controller.IFLS.Unblock         3602      0.00%      0.00%
system.ruby.L2Cache_Controller.IFLOX.Unblock        31200      0.00%      0.00%
system.ruby.L2Cache_Controller.IFLOX.Exclusive_Unblock          165      0.00%      0.00%
system.ruby.L2Cache_Controller.IFLOXX.L1_GETS          253      0.00%      0.00%
system.ruby.L2Cache_Controller.IFLOXX.L1_GETX           19      0.00%      0.00%
system.ruby.L2Cache_Controller.IFLOXX.Unblock        15467      0.00%      0.00%
system.ruby.L2Cache_Controller.IFLOXX.Exclusive_Unblock        30451      0.00%      0.00%
system.ruby.L2Cache_Controller.IFLOSX.Unblock         7818      0.00%      0.00%
system.ruby.L2Cache_Controller.IFLXO.L1_GETS          157      0.00%      0.00%
system.ruby.L2Cache_Controller.IFLXO.L1_GETX            5      0.00%      0.00%
system.ruby.L2Cache_Controller.IFLXO.Exclusive_Unblock        13452      0.00%      0.00%
system.ruby.L2Cache_Controller.IGS.L1_GETS          431      0.00%      0.00%
system.ruby.L2Cache_Controller.IGS.Data        113347      0.00%      0.00%
system.ruby.L2Cache_Controller.IGS.Unblock       113347      0.00%      0.00%
system.ruby.L2Cache_Controller.IGM.Data         27754      0.00%      0.00%
system.ruby.L2Cache_Controller.IGMLS.Data        19771      0.00%      0.00%
system.ruby.L2Cache_Controller.IGMO.All_Acks        47525      0.00%      0.00%
system.ruby.L2Cache_Controller.IGMO.Exclusive_Unblock        47525      0.00%      0.00%
system.ruby.L2Cache_Controller.MM.Exclusive_Unblock       646563      0.00%      0.00%
system.ruby.L2Cache_Controller.SS.L1_GETS            4      0.00%      0.00%
system.ruby.L2Cache_Controller.SS.Unblock     10331335      0.00%      0.00%
system.ruby.L2Cache_Controller.OO.L1_GETS            2      0.00%      0.00%
system.ruby.L2Cache_Controller.OO.Exclusive_Unblock       916809      0.00%      0.00%
system.ruby.L2Cache_Controller.OLSXS.Unblock         7551      0.00%      0.00%
system.ruby.L2Cache_Controller.SLSS.L1_GETS            2      0.00%      0.00%
system.ruby.L2Cache_Controller.SLSS.L1_PUTS_only            1      0.00%      0.00%
system.ruby.L2Cache_Controller.SLSS.L1_PUTS            2      0.00%      0.00%
system.ruby.L2Cache_Controller.SLSS.Unblock       453423      0.00%      0.00%
system.ruby.L2Cache_Controller.MI.Writeback_Ack        37076      0.00%      0.00%
system.ruby.L2Cache_Controller.OLSI.Writeback_Ack           62      0.00%      0.00%
system.ruby.L2Cache_Controller.ILXD.DmaAck          940      0.00%      0.00%

---------- End Simulation Statistics   ----------
