
---------- Begin Simulation Statistics ----------
sim_seconds                                  2.335391                       # Number of seconds simulated
sim_ticks                                2335391286000                       # Number of ticks simulated
final_tick                               54896518841501                       # Number of ticks from beginning of simulation (restored from checkpoints and never reset)
sim_freq                                 1000000000000                       # Frequency of simulated ticks
host_inst_rate                                 131882                       # Simulator instruction rate (inst/s)
host_op_rate                                   239052                       # Simulator op (including micro ops) rate (op/s)
host_tick_rate                              234625155                       # Simulator tick rate (ticks/s)
host_mem_usage                                1847472                       # Number of bytes of host memory used
host_seconds                                  9953.71                       # Real time elapsed on the host
sim_insts                                  1312717654                       # Number of instructions simulated
sim_ops                                    2379458163                       # Number of ops (including micro ops) simulated
system.voltage_domain.voltage                       1                       # Voltage in Volts
system.clk_domain.clock                          1000                       # Clock period in ticks
system.mem_ctrls.bytes_read::ruby.dir_cntrl0     80793664                       # Number of bytes read from this memory
system.mem_ctrls.bytes_read::total           80793664                       # Number of bytes read from this memory
system.mem_ctrls.bytes_written::ruby.dir_cntrl0     46689344                       # Number of bytes written to this memory
system.mem_ctrls.bytes_written::total        46689344                       # Number of bytes written to this memory
system.mem_ctrls.num_reads::ruby.dir_cntrl0      1262401                       # Number of read requests responded to by this memory
system.mem_ctrls.num_reads::total             1262401                       # Number of read requests responded to by this memory
system.mem_ctrls.num_writes::ruby.dir_cntrl0       729521                       # Number of write requests responded to by this memory
system.mem_ctrls.num_writes::total             729521                       # Number of write requests responded to by this memory
system.mem_ctrls.bw_read::ruby.dir_cntrl0     34595344                       # Total read bandwidth from this memory (bytes/s)
system.mem_ctrls.bw_read::total              34595344                       # Total read bandwidth from this memory (bytes/s)
system.mem_ctrls.bw_write::ruby.dir_cntrl0     19992086                       # Write bandwidth from this memory (bytes/s)
system.mem_ctrls.bw_write::total             19992086                       # Write bandwidth from this memory (bytes/s)
system.mem_ctrls.bw_total::ruby.dir_cntrl0     54587430                       # Total bandwidth to/from this memory (bytes/s)
system.mem_ctrls.bw_total::total             54587430                       # Total bandwidth to/from this memory (bytes/s)
system.mem_ctrls.readReqs                     1262401                       # Number of read requests accepted
system.mem_ctrls.writeReqs                     729521                       # Number of write requests accepted
system.mem_ctrls.readBursts                   1262401                       # Number of DRAM read bursts, including those serviced by the write queue
system.mem_ctrls.writeBursts                   729521                       # Number of DRAM write bursts, including those merged in the write queue
system.mem_ctrls.bytesReadDRAM               80760512                       # Total number of bytes read from DRAM
system.mem_ctrls.bytesReadWrQ                   33152                       # Total number of bytes read from write queue
system.mem_ctrls.bytesWritten                46688704                       # Total number of bytes written to DRAM
system.mem_ctrls.bytesReadSys                80793664                       # Total read bytes from the system interface side
system.mem_ctrls.bytesWrittenSys             46689344                       # Total written bytes from the system interface side
system.mem_ctrls.servicedByWrQ                    518                       # Number of DRAM read bursts serviced by the write queue
system.mem_ctrls.mergedWrBursts                     0                       # Number of DRAM write bursts merged with an existing one
system.mem_ctrls.neitherReadNorWriteReqs            0                       # Number of requests that are neither read nor write
system.mem_ctrls.perBankRdBursts::0             79754                       # Per bank write bursts
system.mem_ctrls.perBankRdBursts::1             75722                       # Per bank write bursts
system.mem_ctrls.perBankRdBursts::2             78883                       # Per bank write bursts
system.mem_ctrls.perBankRdBursts::3             78065                       # Per bank write bursts
system.mem_ctrls.perBankRdBursts::4             79053                       # Per bank write bursts
system.mem_ctrls.perBankRdBursts::5             81957                       # Per bank write bursts
system.mem_ctrls.perBankRdBursts::6             80287                       # Per bank write bursts
system.mem_ctrls.perBankRdBursts::7             78815                       # Per bank write bursts
system.mem_ctrls.perBankRdBursts::8             78666                       # Per bank write bursts
system.mem_ctrls.perBankRdBursts::9             79567                       # Per bank write bursts
system.mem_ctrls.perBankRdBursts::10            76895                       # Per bank write bursts
system.mem_ctrls.perBankRdBursts::11            78079                       # Per bank write bursts
system.mem_ctrls.perBankRdBursts::12            81203                       # Per bank write bursts
system.mem_ctrls.perBankRdBursts::13            78012                       # Per bank write bursts
system.mem_ctrls.perBankRdBursts::14            76791                       # Per bank write bursts
system.mem_ctrls.perBankRdBursts::15            80134                       # Per bank write bursts
system.mem_ctrls.perBankWrBursts::0             45756                       # Per bank write bursts
system.mem_ctrls.perBankWrBursts::1             44141                       # Per bank write bursts
system.mem_ctrls.perBankWrBursts::2             45074                       # Per bank write bursts
system.mem_ctrls.perBankWrBursts::3             45282                       # Per bank write bursts
system.mem_ctrls.perBankWrBursts::4             45926                       # Per bank write bursts
system.mem_ctrls.perBankWrBursts::5             47098                       # Per bank write bursts
system.mem_ctrls.perBankWrBursts::6             46462                       # Per bank write bursts
system.mem_ctrls.perBankWrBursts::7             45383                       # Per bank write bursts
system.mem_ctrls.perBankWrBursts::8             45951                       # Per bank write bursts
system.mem_ctrls.perBankWrBursts::9             46216                       # Per bank write bursts
system.mem_ctrls.perBankWrBursts::10            44739                       # Per bank write bursts
system.mem_ctrls.perBankWrBursts::11            45667                       # Per bank write bursts
system.mem_ctrls.perBankWrBursts::12            46345                       # Per bank write bursts
system.mem_ctrls.perBankWrBursts::13            44958                       # Per bank write bursts
system.mem_ctrls.perBankWrBursts::14            44935                       # Per bank write bursts
system.mem_ctrls.perBankWrBursts::15            45578                       # Per bank write bursts
system.mem_ctrls.numRdRetry                         0                       # Number of times read queue was full causing retry
system.mem_ctrls.numWrRetry                         0                       # Number of times write queue was full causing retry
system.mem_ctrls.totGap                  2335391207500                       # Total gap between requests
system.mem_ctrls.readPktSize::0                     0                       # Read request sizes (log2)
system.mem_ctrls.readPktSize::1                     0                       # Read request sizes (log2)
system.mem_ctrls.readPktSize::2                     0                       # Read request sizes (log2)
system.mem_ctrls.readPktSize::3                     0                       # Read request sizes (log2)
system.mem_ctrls.readPktSize::4                     0                       # Read request sizes (log2)
system.mem_ctrls.readPktSize::5                     0                       # Read request sizes (log2)
system.mem_ctrls.readPktSize::6               1262401                       # Read request sizes (log2)
system.mem_ctrls.writePktSize::0                    0                       # Write request sizes (log2)
system.mem_ctrls.writePktSize::1                    0                       # Write request sizes (log2)
system.mem_ctrls.writePktSize::2                    0                       # Write request sizes (log2)
system.mem_ctrls.writePktSize::3                    0                       # Write request sizes (log2)
system.mem_ctrls.writePktSize::4                    0                       # Write request sizes (log2)
system.mem_ctrls.writePktSize::5                    0                       # Write request sizes (log2)
system.mem_ctrls.writePktSize::6               729521                       # Write request sizes (log2)
system.mem_ctrls.rdQLenPdf::0                 1260845                       # What read queue length does an incoming req see
system.mem_ctrls.rdQLenPdf::1                    1037                       # What read queue length does an incoming req see
system.mem_ctrls.rdQLenPdf::2                       1                       # What read queue length does an incoming req see
system.mem_ctrls.rdQLenPdf::3                       0                       # What read queue length does an incoming req see
system.mem_ctrls.rdQLenPdf::4                       0                       # What read queue length does an incoming req see
system.mem_ctrls.rdQLenPdf::5                       0                       # What read queue length does an incoming req see
system.mem_ctrls.rdQLenPdf::6                       0                       # What read queue length does an incoming req see
system.mem_ctrls.rdQLenPdf::7                       0                       # What read queue length does an incoming req see
system.mem_ctrls.rdQLenPdf::8                       0                       # What read queue length does an incoming req see
system.mem_ctrls.rdQLenPdf::9                       0                       # What read queue length does an incoming req see
system.mem_ctrls.rdQLenPdf::10                      0                       # What read queue length does an incoming req see
system.mem_ctrls.rdQLenPdf::11                      0                       # What read queue length does an incoming req see
system.mem_ctrls.rdQLenPdf::12                      0                       # What read queue length does an incoming req see
system.mem_ctrls.rdQLenPdf::13                      0                       # What read queue length does an incoming req see
system.mem_ctrls.rdQLenPdf::14                      0                       # What read queue length does an incoming req see
system.mem_ctrls.rdQLenPdf::15                      0                       # What read queue length does an incoming req see
system.mem_ctrls.rdQLenPdf::16                      0                       # What read queue length does an incoming req see
system.mem_ctrls.rdQLenPdf::17                      0                       # What read queue length does an incoming req see
system.mem_ctrls.rdQLenPdf::18                      0                       # What read queue length does an incoming req see
system.mem_ctrls.rdQLenPdf::19                      0                       # What read queue length does an incoming req see
system.mem_ctrls.rdQLenPdf::20                      0                       # What read queue length does an incoming req see
system.mem_ctrls.rdQLenPdf::21                      0                       # What read queue length does an incoming req see
system.mem_ctrls.rdQLenPdf::22                      0                       # What read queue length does an incoming req see
system.mem_ctrls.rdQLenPdf::23                      0                       # What read queue length does an incoming req see
system.mem_ctrls.rdQLenPdf::24                      0                       # What read queue length does an incoming req see
system.mem_ctrls.rdQLenPdf::25                      0                       # What read queue length does an incoming req see
system.mem_ctrls.rdQLenPdf::26                      0                       # What read queue length does an incoming req see
system.mem_ctrls.rdQLenPdf::27                      0                       # What read queue length does an incoming req see
system.mem_ctrls.rdQLenPdf::28                      0                       # What read queue length does an incoming req see
system.mem_ctrls.rdQLenPdf::29                      0                       # What read queue length does an incoming req see
system.mem_ctrls.rdQLenPdf::30                      0                       # What read queue length does an incoming req see
system.mem_ctrls.rdQLenPdf::31                      0                       # What read queue length does an incoming req see
system.mem_ctrls.wrQLenPdf::0                       0                       # What write queue length does an incoming req see
system.mem_ctrls.wrQLenPdf::1                       0                       # What write queue length does an incoming req see
system.mem_ctrls.wrQLenPdf::2                       0                       # What write queue length does an incoming req see
system.mem_ctrls.wrQLenPdf::3                       0                       # What write queue length does an incoming req see
system.mem_ctrls.wrQLenPdf::4                       0                       # What write queue length does an incoming req see
system.mem_ctrls.wrQLenPdf::5                       0                       # What write queue length does an incoming req see
system.mem_ctrls.wrQLenPdf::6                       0                       # What write queue length does an incoming req see
system.mem_ctrls.wrQLenPdf::7                       0                       # What write queue length does an incoming req see
system.mem_ctrls.wrQLenPdf::8                       0                       # What write queue length does an incoming req see
system.mem_ctrls.wrQLenPdf::9                       0                       # What write queue length does an incoming req see
system.mem_ctrls.wrQLenPdf::10                      0                       # What write queue length does an incoming req see
system.mem_ctrls.wrQLenPdf::11                      0                       # What write queue length does an incoming req see
system.mem_ctrls.wrQLenPdf::12                      0                       # What write queue length does an incoming req see
system.mem_ctrls.wrQLenPdf::13                      0                       # What write queue length does an incoming req see
system.mem_ctrls.wrQLenPdf::14                      0                       # What write queue length does an incoming req see
system.mem_ctrls.wrQLenPdf::15                  25409                       # What write queue length does an incoming req see
system.mem_ctrls.wrQLenPdf::16                  26700                       # What write queue length does an incoming req see
system.mem_ctrls.wrQLenPdf::17                  34328                       # What write queue length does an incoming req see
system.mem_ctrls.wrQLenPdf::18                  43346                       # What write queue length does an incoming req see
system.mem_ctrls.wrQLenPdf::19                  43613                       # What write queue length does an incoming req see
system.mem_ctrls.wrQLenPdf::20                  44389                       # What write queue length does an incoming req see
system.mem_ctrls.wrQLenPdf::21                  44370                       # What write queue length does an incoming req see
system.mem_ctrls.wrQLenPdf::22                  43113                       # What write queue length does an incoming req see
system.mem_ctrls.wrQLenPdf::23                  42661                       # What write queue length does an incoming req see
system.mem_ctrls.wrQLenPdf::24                  42508                       # What write queue length does an incoming req see
system.mem_ctrls.wrQLenPdf::25                  42418                       # What write queue length does an incoming req see
system.mem_ctrls.wrQLenPdf::26                  42469                       # What write queue length does an incoming req see
system.mem_ctrls.wrQLenPdf::27                  42462                       # What write queue length does an incoming req see
system.mem_ctrls.wrQLenPdf::28                  42396                       # What write queue length does an incoming req see
system.mem_ctrls.wrQLenPdf::29                  42426                       # What write queue length does an incoming req see
system.mem_ctrls.wrQLenPdf::30                  42293                       # What write queue length does an incoming req see
system.mem_ctrls.wrQLenPdf::31                  42272                       # What write queue length does an incoming req see
system.mem_ctrls.wrQLenPdf::32                  42275                       # What write queue length does an incoming req see
system.mem_ctrls.wrQLenPdf::33                     60                       # What write queue length does an incoming req see
system.mem_ctrls.wrQLenPdf::34                     10                       # What write queue length does an incoming req see
system.mem_ctrls.wrQLenPdf::35                      3                       # What write queue length does an incoming req see
system.mem_ctrls.wrQLenPdf::36                      0                       # What write queue length does an incoming req see
system.mem_ctrls.wrQLenPdf::37                      0                       # What write queue length does an incoming req see
system.mem_ctrls.wrQLenPdf::38                      0                       # What write queue length does an incoming req see
system.mem_ctrls.wrQLenPdf::39                      0                       # What write queue length does an incoming req see
system.mem_ctrls.wrQLenPdf::40                      0                       # What write queue length does an incoming req see
system.mem_ctrls.wrQLenPdf::41                      0                       # What write queue length does an incoming req see
system.mem_ctrls.wrQLenPdf::42                      0                       # What write queue length does an incoming req see
system.mem_ctrls.wrQLenPdf::43                      0                       # What write queue length does an incoming req see
system.mem_ctrls.wrQLenPdf::44                      0                       # What write queue length does an incoming req see
system.mem_ctrls.wrQLenPdf::45                      0                       # What write queue length does an incoming req see
system.mem_ctrls.wrQLenPdf::46                      0                       # What write queue length does an incoming req see
system.mem_ctrls.wrQLenPdf::47                      0                       # What write queue length does an incoming req see
system.mem_ctrls.wrQLenPdf::48                      0                       # What write queue length does an incoming req see
system.mem_ctrls.wrQLenPdf::49                      0                       # What write queue length does an incoming req see
system.mem_ctrls.wrQLenPdf::50                      0                       # What write queue length does an incoming req see
system.mem_ctrls.wrQLenPdf::51                      0                       # What write queue length does an incoming req see
system.mem_ctrls.wrQLenPdf::52                      0                       # What write queue length does an incoming req see
system.mem_ctrls.wrQLenPdf::53                      0                       # What write queue length does an incoming req see
system.mem_ctrls.wrQLenPdf::54                      0                       # What write queue length does an incoming req see
system.mem_ctrls.wrQLenPdf::55                      0                       # What write queue length does an incoming req see
system.mem_ctrls.wrQLenPdf::56                      0                       # What write queue length does an incoming req see
system.mem_ctrls.wrQLenPdf::57                      0                       # What write queue length does an incoming req see
system.mem_ctrls.wrQLenPdf::58                      0                       # What write queue length does an incoming req see
system.mem_ctrls.wrQLenPdf::59                      0                       # What write queue length does an incoming req see
system.mem_ctrls.wrQLenPdf::60                      0                       # What write queue length does an incoming req see
system.mem_ctrls.wrQLenPdf::61                      0                       # What write queue length does an incoming req see
system.mem_ctrls.wrQLenPdf::62                      0                       # What write queue length does an incoming req see
system.mem_ctrls.wrQLenPdf::63                      0                       # What write queue length does an incoming req see
system.mem_ctrls.bytesPerActivate::samples       821167                       # Bytes accessed per row activation
system.mem_ctrls.bytesPerActivate::mean    155.205146                       # Bytes accessed per row activation
system.mem_ctrls.bytesPerActivate::gmean   106.569772                       # Bytes accessed per row activation
system.mem_ctrls.bytesPerActivate::stdev   194.560447                       # Bytes accessed per row activation
system.mem_ctrls.bytesPerActivate::0-127       490563     59.74%     59.74% # Bytes accessed per row activation
system.mem_ctrls.bytesPerActivate::128-255       190646     23.22%     82.96% # Bytes accessed per row activation
system.mem_ctrls.bytesPerActivate::256-383        81119      9.88%     92.83% # Bytes accessed per row activation
system.mem_ctrls.bytesPerActivate::384-511        11831      1.44%     94.28% # Bytes accessed per row activation
system.mem_ctrls.bytesPerActivate::512-639         8120      0.99%     95.26% # Bytes accessed per row activation
system.mem_ctrls.bytesPerActivate::640-767         6323      0.77%     96.03% # Bytes accessed per row activation
system.mem_ctrls.bytesPerActivate::768-895         5872      0.72%     96.75% # Bytes accessed per row activation
system.mem_ctrls.bytesPerActivate::896-1023         4457      0.54%     97.29% # Bytes accessed per row activation
system.mem_ctrls.bytesPerActivate::1024-1151        22236      2.71%    100.00% # Bytes accessed per row activation
system.mem_ctrls.bytesPerActivate::total       821167                       # Bytes accessed per row activation
system.mem_ctrls.rdPerTurnAround::samples        42270                       # Reads before turning the bus around for writes
system.mem_ctrls.rdPerTurnAround::mean      29.850674                       # Reads before turning the bus around for writes
system.mem_ctrls.rdPerTurnAround::stdev     42.228706                       # Reads before turning the bus around for writes
system.mem_ctrls.rdPerTurnAround::0-255         42128     99.66%     99.66% # Reads before turning the bus around for writes
system.mem_ctrls.rdPerTurnAround::256-511          129      0.31%     99.97% # Reads before turning the bus around for writes
system.mem_ctrls.rdPerTurnAround::512-767            7      0.02%     99.99% # Reads before turning the bus around for writes
system.mem_ctrls.rdPerTurnAround::1280-1535            1      0.00%     99.99% # Reads before turning the bus around for writes
system.mem_ctrls.rdPerTurnAround::1792-2047            2      0.00%     99.99% # Reads before turning the bus around for writes
system.mem_ctrls.rdPerTurnAround::2048-2303            2      0.00%    100.00% # Reads before turning the bus around for writes
system.mem_ctrls.rdPerTurnAround::4864-5119            1      0.00%    100.00% # Reads before turning the bus around for writes
system.mem_ctrls.rdPerTurnAround::total         42270                       # Reads before turning the bus around for writes
system.mem_ctrls.wrPerTurnAround::samples        42270                       # Writes before turning the bus around for reads
system.mem_ctrls.wrPerTurnAround::mean      17.258363                       # Writes before turning the bus around for reads
system.mem_ctrls.wrPerTurnAround::gmean     17.228678                       # Writes before turning the bus around for reads
system.mem_ctrls.wrPerTurnAround::stdev      1.011133                       # Writes before turning the bus around for reads
system.mem_ctrls.wrPerTurnAround::16            15636     36.99%     36.99% # Writes before turning the bus around for reads
system.mem_ctrls.wrPerTurnAround::17             1160      2.74%     39.74% # Writes before turning the bus around for reads
system.mem_ctrls.wrPerTurnAround::18            24725     58.49%     98.23% # Writes before turning the bus around for reads
system.mem_ctrls.wrPerTurnAround::19              554      1.31%     99.54% # Writes before turning the bus around for reads
system.mem_ctrls.wrPerTurnAround::20              129      0.31%     99.84% # Writes before turning the bus around for reads
system.mem_ctrls.wrPerTurnAround::21               41      0.10%     99.94% # Writes before turning the bus around for reads
system.mem_ctrls.wrPerTurnAround::22               13      0.03%     99.97% # Writes before turning the bus around for reads
system.mem_ctrls.wrPerTurnAround::23                5      0.01%     99.98% # Writes before turning the bus around for reads
system.mem_ctrls.wrPerTurnAround::24                4      0.01%     99.99% # Writes before turning the bus around for reads
system.mem_ctrls.wrPerTurnAround::28                1      0.00%    100.00% # Writes before turning the bus around for reads
system.mem_ctrls.wrPerTurnAround::31                1      0.00%    100.00% # Writes before turning the bus around for reads
system.mem_ctrls.wrPerTurnAround::42                1      0.00%    100.00% # Writes before turning the bus around for reads
system.mem_ctrls.wrPerTurnAround::total         42270                       # Writes before turning the bus around for reads
system.mem_ctrls.totQLat                  10490311244                       # Total ticks spent queuing
system.mem_ctrls.totMemAccLat             34150617494                       # Total ticks spent from burst creation until serviced by the DRAM
system.mem_ctrls.totBusLat                 6309415000                       # Total ticks spent in databus transfers
system.mem_ctrls.avgQLat                      8313.22                       # Average queueing delay per DRAM burst
system.mem_ctrls.avgBusLat                    5000.00                       # Average bus latency per DRAM burst
system.mem_ctrls.avgMemAccLat                27063.22                       # Average memory access latency per DRAM burst
system.mem_ctrls.avgRdBW                        34.58                       # Average DRAM read bandwidth in MiByte/s
system.mem_ctrls.avgWrBW                        19.99                       # Average achieved write bandwidth in MiByte/s
system.mem_ctrls.avgRdBWSys                     34.60                       # Average system read bandwidth in MiByte/s
system.mem_ctrls.avgWrBWSys                     19.99                       # Average system write bandwidth in MiByte/s
system.mem_ctrls.peakBW                      12800.00                       # Theoretical peak bandwidth in MiByte/s
system.mem_ctrls.busUtil                         0.43                       # Data bus utilization in percentage
system.mem_ctrls.busUtilRead                     0.27                       # Data bus utilization in percentage for reads
system.mem_ctrls.busUtilWrite                    0.16                       # Data bus utilization in percentage for writes
system.mem_ctrls.avgRdQLen                       1.00                       # Average read queue length when enqueuing
system.mem_ctrls.avgWrQLen                      24.55                       # Average write queue length when enqueuing
system.mem_ctrls.readRowHits                   963266                       # Number of row buffer hits during reads
system.mem_ctrls.writeRowHits                  206961                       # Number of row buffer hits during writes
system.mem_ctrls.readRowHitRate                 76.34                       # Row buffer hit rate for reads
system.mem_ctrls.writeRowHitRate                28.37                       # Row buffer hit rate for writes
system.mem_ctrls.avgGap                    1172431.05                       # Average gap between requests
system.mem_ctrls.pageHitRate                    58.76                       # Row buffer hit rate, read and write combined
system.mem_ctrls_0.actEnergy               3142646640                       # Energy for activate commands per rank (pJ)
system.mem_ctrls_0.preEnergy               1714737750                       # Energy for precharge commands per rank (pJ)
system.mem_ctrls_0.readEnergy              5088252000                       # Energy for read commands per rank (pJ)
system.mem_ctrls_0.writeEnergy             2371187520                       # Energy for write commands per rank (pJ)
system.mem_ctrls_0.refreshEnergy         153240316320                       # Energy for refresh commands per rank (pJ)
system.mem_ctrls_0.actBackEnergy         311571297270                       # Energy for active background per rank (pJ)
system.mem_ctrls_0.preBackEnergy         1134393054000                       # Energy for precharge background per rank (pJ)
system.mem_ctrls_0.totalEnergy           1611521491500                       # Total energy per rank (pJ)
system.mem_ctrls_0.averagePower            686.873669                       # Core power per rank (mW)
system.mem_ctrls_0.memoryStateTime::IDLE 1880242561501                       # Time in different power states
system.mem_ctrls_0.memoryStateTime::REF   77983880000                       # Time in different power states
system.mem_ctrls_0.memoryStateTime::PRE_PDN            0                       # Time in different power states
system.mem_ctrls_0.memoryStateTime::ACT  377164945499                       # Time in different power states
system.mem_ctrls_0.memoryStateTime::ACT_PDN            0                       # Time in different power states
system.mem_ctrls_1.actEnergy               3120435360                       # Energy for activate commands per rank (pJ)
system.mem_ctrls_1.preEnergy               1702618500                       # Energy for precharge commands per rank (pJ)
system.mem_ctrls_1.readEnergy              5048199000                       # Energy for read commands per rank (pJ)
system.mem_ctrls_1.writeEnergy             2364973200                       # Energy for write commands per rank (pJ)
system.mem_ctrls_1.refreshEnergy         153240316320                       # Energy for refresh commands per rank (pJ)
system.mem_ctrls_1.actBackEnergy         310907588130                       # Energy for active background per rank (pJ)
system.mem_ctrls_1.preBackEnergy         1134975255000                       # Energy for precharge background per rank (pJ)
system.mem_ctrls_1.totalEnergy           1611359385510                       # Total energy per rank (pJ)
system.mem_ctrls_1.averagePower            686.804575                       # Core power per rank (mW)
system.mem_ctrls_1.memoryStateTime::IDLE 1880839007250                       # Time in different power states
system.mem_ctrls_1.memoryStateTime::REF   77983880000                       # Time in different power states
system.mem_ctrls_1.memoryStateTime::PRE_PDN            0                       # Time in different power states
system.mem_ctrls_1.memoryStateTime::ACT  376569365250                       # Time in different power states
system.mem_ctrls_1.memoryStateTime::ACT_PDN            0                       # Time in different power states
system.cpu_voltage_domain.voltage                   1                       # Voltage in Volts
system.cpu_clk_domain.clock                       500                       # Clock period in ticks
system.cpu0.apic_clk_domain.clock                8000                       # Clock period in ticks
system.cpu0.numCycles                      4672736907                       # number of cpu cycles simulated
system.cpu0.numWorkItemsStarted                     0                       # number of work items this cpu started
system.cpu0.numWorkItemsCompleted                   0                       # number of work items this cpu completed
system.cpu0.kern.inst.arm                           0                       # number of arm instructions executed
system.cpu0.kern.inst.quiesce                       0                       # number of quiesce instructions executed
system.cpu0.committedInsts                    3815279                       # Number of instructions committed
system.cpu0.committedOps                      7902312                       # Number of ops (including micro ops) committed
system.cpu0.num_int_alu_accesses              7683961                       # Number of integer alu accesses
system.cpu0.num_fp_alu_accesses                   372                       # Number of float alu accesses
system.cpu0.num_func_calls                     185726                       # number of times a function call or return occured
system.cpu0.num_conditional_control_insts       600095                       # number of instructions that are conditional controls
system.cpu0.num_int_insts                     7683961                       # number of integer instructions
system.cpu0.num_fp_insts                          372                       # number of float instructions
system.cpu0.num_int_register_reads           15027250                       # number of times the integer registers were read
system.cpu0.num_int_register_writes           6334982                       # number of times the integer registers were written
system.cpu0.num_fp_register_reads                 596                       # number of times the floating registers were read
system.cpu0.num_fp_register_writes                261                       # number of times the floating registers were written
system.cpu0.num_cc_register_reads             4690667                       # number of times the CC registers were read
system.cpu0.num_cc_register_writes            2913506                       # number of times the CC registers were written
system.cpu0.num_mem_refs                      1624281                       # number of memory refs
system.cpu0.num_load_insts                    1004049                       # Number of load instructions
system.cpu0.num_store_insts                    620232                       # Number of store instructions
system.cpu0.num_idle_cycles              4655673644.442326                       # Number of idle cycles
system.cpu0.num_busy_cycles              17063262.557674                       # Number of busy cycles
system.cpu0.not_idle_fraction                0.003652                       # Percentage of non-idle cycles
system.cpu0.idle_fraction                    0.996348                       # Percentage of idle cycles
system.cpu0.Branches                           849510                       # Number of branches fetched
system.cpu0.op_class::No_OpClass                79171      1.00%      1.00% # Class of executed instruction
system.cpu0.op_class::IntAlu                  6165086     78.02%     79.02% # Class of executed instruction
system.cpu0.op_class::IntMult                    8683      0.11%     79.13% # Class of executed instruction
system.cpu0.op_class::IntDiv                    24933      0.32%     79.44% # Class of executed instruction
system.cpu0.op_class::FloatAdd                    244      0.00%     79.45% # Class of executed instruction
system.cpu0.op_class::FloatCmp                      0      0.00%     79.45% # Class of executed instruction
system.cpu0.op_class::FloatCvt                      0      0.00%     79.45% # Class of executed instruction
system.cpu0.op_class::FloatMult                     0      0.00%     79.45% # Class of executed instruction
system.cpu0.op_class::FloatDiv                      0      0.00%     79.45% # Class of executed instruction
system.cpu0.op_class::FloatSqrt                     0      0.00%     79.45% # Class of executed instruction
system.cpu0.op_class::SimdAdd                       0      0.00%     79.45% # Class of executed instruction
system.cpu0.op_class::SimdAddAcc                    0      0.00%     79.45% # Class of executed instruction
system.cpu0.op_class::SimdAlu                       0      0.00%     79.45% # Class of executed instruction
system.cpu0.op_class::SimdCmp                       0      0.00%     79.45% # Class of executed instruction
system.cpu0.op_class::SimdCvt                       0      0.00%     79.45% # Class of executed instruction
system.cpu0.op_class::SimdMisc                      0      0.00%     79.45% # Class of executed instruction
system.cpu0.op_class::SimdMult                      0      0.00%     79.45% # Class of executed instruction
system.cpu0.op_class::SimdMultAcc                   0      0.00%     79.45% # Class of executed instruction
system.cpu0.op_class::SimdShift                     0      0.00%     79.45% # Class of executed instruction
system.cpu0.op_class::SimdShiftAcc                  0      0.00%     79.45% # Class of executed instruction
system.cpu0.op_class::SimdSqrt                      0      0.00%     79.45% # Class of executed instruction
system.cpu0.op_class::SimdFloatAdd                  0      0.00%     79.45% # Class of executed instruction
system.cpu0.op_class::SimdFloatAlu                  0      0.00%     79.45% # Class of executed instruction
system.cpu0.op_class::SimdFloatCmp                  0      0.00%     79.45% # Class of executed instruction
system.cpu0.op_class::SimdFloatCvt                  0      0.00%     79.45% # Class of executed instruction
system.cpu0.op_class::SimdFloatDiv                  0      0.00%     79.45% # Class of executed instruction
system.cpu0.op_class::SimdFloatMisc                 0      0.00%     79.45% # Class of executed instruction
system.cpu0.op_class::SimdFloatMult                 0      0.00%     79.45% # Class of executed instruction
system.cpu0.op_class::SimdFloatMultAcc              0      0.00%     79.45% # Class of executed instruction
system.cpu0.op_class::SimdFloatSqrt                 0      0.00%     79.45% # Class of executed instruction
system.cpu0.op_class::MemRead                 1004049     12.71%     92.15% # Class of executed instruction
system.cpu0.op_class::MemWrite                 620232      7.85%    100.00% # Class of executed instruction
system.cpu0.op_class::IprAccess                     0      0.00%    100.00% # Class of executed instruction
system.cpu0.op_class::InstPrefetch                  0      0.00%    100.00% # Class of executed instruction
system.cpu0.op_class::total                   7902398                       # Class of executed instruction
system.cpu1.apic_clk_domain.clock                8000                       # Clock period in ticks
system.cpu1.numCycles                      4665951483                       # number of cpu cycles simulated
system.cpu1.numWorkItemsStarted                     0                       # number of work items this cpu started
system.cpu1.numWorkItemsCompleted                   0                       # number of work items this cpu completed
system.cpu1.kern.inst.arm                           0                       # number of arm instructions executed
system.cpu1.kern.inst.quiesce                       0                       # number of quiesce instructions executed
system.cpu1.committedInsts                 1297716848                       # Number of instructions committed
system.cpu1.committedOps                   2349165040                       # Number of ops (including micro ops) committed
system.cpu1.num_int_alu_accesses           1507188518                       # Number of integer alu accesses
system.cpu1.num_fp_alu_accesses            1130300518                       # Number of float alu accesses
system.cpu1.num_func_calls                     801973                       # number of times a function call or return occured
system.cpu1.num_conditional_control_insts    160945624                       # number of instructions that are conditional controls
system.cpu1.num_int_insts                  1507188518                       # number of integer instructions
system.cpu1.num_fp_insts                   1130300518                       # number of float instructions
system.cpu1.num_int_register_reads         2940964581                       # number of times the integer registers were read
system.cpu1.num_int_register_writes        1034170840                       # number of times the integer registers were written
system.cpu1.num_fp_register_reads          1382500686                       # number of times the floating registers were read
system.cpu1.num_fp_register_writes         1075410587                       # number of times the floating registers were written
system.cpu1.num_cc_register_reads           939439252                       # number of times the CC registers were read
system.cpu1.num_cc_register_writes          528247817                       # number of times the CC registers were written
system.cpu1.num_mem_refs                    388390515                       # number of memory refs
system.cpu1.num_load_insts                  349992904                       # Number of load instructions
system.cpu1.num_store_insts                  38397611                       # Number of store instructions
system.cpu1.num_idle_cycles              20259325.657576                       # Number of idle cycles
system.cpu1.num_busy_cycles              4645692157.342424                       # Number of busy cycles
system.cpu1.not_idle_fraction                0.995658                       # Percentage of non-idle cycles
system.cpu1.idle_fraction                    0.004342                       # Percentage of idle cycles
system.cpu1.Branches                        166339884                       # Number of branches fetched
system.cpu1.op_class::No_OpClass              3904139      0.17%      0.17% # Class of executed instruction
system.cpu1.op_class::IntAlu               1229172915     52.32%     52.49% # Class of executed instruction
system.cpu1.op_class::IntMult                 4268425      0.18%     52.67% # Class of executed instruction
system.cpu1.op_class::IntDiv                      938      0.00%     52.67% # Class of executed instruction
system.cpu1.op_class::FloatAdd              723444434     30.80%     83.47% # Class of executed instruction
system.cpu1.op_class::FloatCmp                      0      0.00%     83.47% # Class of executed instruction
system.cpu1.op_class::FloatCvt                      0      0.00%     83.47% # Class of executed instruction
system.cpu1.op_class::FloatMult                     0      0.00%     83.47% # Class of executed instruction
system.cpu1.op_class::FloatDiv                      0      0.00%     83.47% # Class of executed instruction
system.cpu1.op_class::FloatSqrt                     0      0.00%     83.47% # Class of executed instruction
system.cpu1.op_class::SimdAdd                       0      0.00%     83.47% # Class of executed instruction
system.cpu1.op_class::SimdAddAcc                    0      0.00%     83.47% # Class of executed instruction
system.cpu1.op_class::SimdAlu                       0      0.00%     83.47% # Class of executed instruction
system.cpu1.op_class::SimdCmp                       0      0.00%     83.47% # Class of executed instruction
system.cpu1.op_class::SimdCvt                       0      0.00%     83.47% # Class of executed instruction
system.cpu1.op_class::SimdMisc                      0      0.00%     83.47% # Class of executed instruction
system.cpu1.op_class::SimdMult                      0      0.00%     83.47% # Class of executed instruction
system.cpu1.op_class::SimdMultAcc                   0      0.00%     83.47% # Class of executed instruction
system.cpu1.op_class::SimdShift                     0      0.00%     83.47% # Class of executed instruction
system.cpu1.op_class::SimdShiftAcc                  0      0.00%     83.47% # Class of executed instruction
system.cpu1.op_class::SimdSqrt                      0      0.00%     83.47% # Class of executed instruction
system.cpu1.op_class::SimdFloatAdd                  0      0.00%     83.47% # Class of executed instruction
system.cpu1.op_class::SimdFloatAlu                  0      0.00%     83.47% # Class of executed instruction
system.cpu1.op_class::SimdFloatCmp                  0      0.00%     83.47% # Class of executed instruction
system.cpu1.op_class::SimdFloatCvt                  0      0.00%     83.47% # Class of executed instruction
system.cpu1.op_class::SimdFloatDiv                  0      0.00%     83.47% # Class of executed instruction
system.cpu1.op_class::SimdFloatMisc                 0      0.00%     83.47% # Class of executed instruction
system.cpu1.op_class::SimdFloatMult                 0      0.00%     83.47% # Class of executed instruction
system.cpu1.op_class::SimdFloatMultAcc              0      0.00%     83.47% # Class of executed instruction
system.cpu1.op_class::SimdFloatSqrt                 0      0.00%     83.47% # Class of executed instruction
system.cpu1.op_class::MemRead               349992904     14.90%     98.37% # Class of executed instruction
system.cpu1.op_class::MemWrite               38397611      1.63%    100.00% # Class of executed instruction
system.cpu1.op_class::IprAccess                     0      0.00%    100.00% # Class of executed instruction
system.cpu1.op_class::InstPrefetch                  0      0.00%    100.00% # Class of executed instruction
system.cpu1.op_class::total                2349181366                       # Class of executed instruction
system.cpu2.apic_clk_domain.clock                8000                       # Clock period in ticks
system.cpu2.numCycles                      4668878732                       # number of cpu cycles simulated
system.cpu2.numWorkItemsStarted                     0                       # number of work items this cpu started
system.cpu2.numWorkItemsCompleted                   0                       # number of work items this cpu completed
system.cpu2.kern.inst.arm                           0                       # number of arm instructions executed
system.cpu2.kern.inst.quiesce                       0                       # number of quiesce instructions executed
system.cpu2.committedInsts                    4661306                       # Number of instructions committed
system.cpu2.committedOps                      9378480                       # Number of ops (including micro ops) committed
system.cpu2.num_int_alu_accesses              9209944                       # Number of integer alu accesses
system.cpu2.num_fp_alu_accesses                  1778                       # Number of float alu accesses
system.cpu2.num_func_calls                     242160                       # number of times a function call or return occured
system.cpu2.num_conditional_control_insts       807976                       # number of instructions that are conditional controls
system.cpu2.num_int_insts                     9209944                       # number of integer instructions
system.cpu2.num_fp_insts                         1778                       # number of float instructions
system.cpu2.num_int_register_reads           18216887                       # number of times the integer registers were read
system.cpu2.num_int_register_writes           7497277                       # number of times the integer registers were written
system.cpu2.num_fp_register_reads                2988                       # number of times the floating registers were read
system.cpu2.num_fp_register_writes               1416                       # number of times the floating registers were written
system.cpu2.num_cc_register_reads             6033648                       # number of times the CC registers were read
system.cpu2.num_cc_register_writes            3201513                       # number of times the CC registers were written
system.cpu2.num_mem_refs                      2084621                       # number of memory refs
system.cpu2.num_load_insts                    1351594                       # Number of load instructions
system.cpu2.num_store_insts                    733027                       # Number of store instructions
system.cpu2.num_idle_cycles              4650116313.818758                       # Number of idle cycles
system.cpu2.num_busy_cycles              18762418.181242                       # Number of busy cycles
system.cpu2.not_idle_fraction                0.004019                       # Percentage of non-idle cycles
system.cpu2.idle_fraction                    0.995981                       # Percentage of idle cycles
system.cpu2.Branches                          1094947                       # Number of branches fetched
system.cpu2.op_class::No_OpClass                72710      0.78%      0.78% # Class of executed instruction
system.cpu2.op_class::IntAlu                  7187247     76.63%     77.41% # Class of executed instruction
system.cpu2.op_class::IntMult                    8320      0.09%     77.50% # Class of executed instruction
system.cpu2.op_class::IntDiv                    24327      0.26%     77.76% # Class of executed instruction
system.cpu2.op_class::FloatAdd                   1344      0.01%     77.77% # Class of executed instruction
system.cpu2.op_class::FloatCmp                      0      0.00%     77.77% # Class of executed instruction
system.cpu2.op_class::FloatCvt                      0      0.00%     77.77% # Class of executed instruction
system.cpu2.op_class::FloatMult                     0      0.00%     77.77% # Class of executed instruction
system.cpu2.op_class::FloatDiv                      0      0.00%     77.77% # Class of executed instruction
system.cpu2.op_class::FloatSqrt                     0      0.00%     77.77% # Class of executed instruction
system.cpu2.op_class::SimdAdd                       0      0.00%     77.77% # Class of executed instruction
system.cpu2.op_class::SimdAddAcc                    0      0.00%     77.77% # Class of executed instruction
system.cpu2.op_class::SimdAlu                       0      0.00%     77.77% # Class of executed instruction
system.cpu2.op_class::SimdCmp                       0      0.00%     77.77% # Class of executed instruction
system.cpu2.op_class::SimdCvt                       0      0.00%     77.77% # Class of executed instruction
system.cpu2.op_class::SimdMisc                      0      0.00%     77.77% # Class of executed instruction
system.cpu2.op_class::SimdMult                      0      0.00%     77.77% # Class of executed instruction
system.cpu2.op_class::SimdMultAcc                   0      0.00%     77.77% # Class of executed instruction
system.cpu2.op_class::SimdShift                     0      0.00%     77.77% # Class of executed instruction
system.cpu2.op_class::SimdShiftAcc                  0      0.00%     77.77% # Class of executed instruction
system.cpu2.op_class::SimdSqrt                      0      0.00%     77.77% # Class of executed instruction
system.cpu2.op_class::SimdFloatAdd                  0      0.00%     77.77% # Class of executed instruction
system.cpu2.op_class::SimdFloatAlu                  0      0.00%     77.77% # Class of executed instruction
system.cpu2.op_class::SimdFloatCmp                  0      0.00%     77.77% # Class of executed instruction
system.cpu2.op_class::SimdFloatCvt                  0      0.00%     77.77% # Class of executed instruction
system.cpu2.op_class::SimdFloatDiv                  0      0.00%     77.77% # Class of executed instruction
system.cpu2.op_class::SimdFloatMisc                 0      0.00%     77.77% # Class of executed instruction
system.cpu2.op_class::SimdFloatMult                 0      0.00%     77.77% # Class of executed instruction
system.cpu2.op_class::SimdFloatMultAcc              0      0.00%     77.77% # Class of executed instruction
system.cpu2.op_class::SimdFloatSqrt                 0      0.00%     77.77% # Class of executed instruction
system.cpu2.op_class::MemRead                 1351594     14.41%     92.18% # Class of executed instruction
system.cpu2.op_class::MemWrite                 733027      7.82%    100.00% # Class of executed instruction
system.cpu2.op_class::IprAccess                     0      0.00%    100.00% # Class of executed instruction
system.cpu2.op_class::InstPrefetch                  0      0.00%    100.00% # Class of executed instruction
system.cpu2.op_class::total                   9378569                       # Class of executed instruction
system.cpu3.apic_clk_domain.clock                8000                       # Clock period in ticks
system.cpu3.numCycles                      4672842411                       # number of cpu cycles simulated
system.cpu3.numWorkItemsStarted                     0                       # number of work items this cpu started
system.cpu3.numWorkItemsCompleted                   0                       # number of work items this cpu completed
system.cpu3.kern.inst.arm                           0                       # number of arm instructions executed
system.cpu3.kern.inst.quiesce                       0                       # number of quiesce instructions executed
system.cpu3.committedInsts                    1768061                       # Number of instructions committed
system.cpu3.committedOps                      3779748                       # Number of ops (including micro ops) committed
system.cpu3.num_int_alu_accesses              3705062                       # Number of integer alu accesses
system.cpu3.num_fp_alu_accesses                    39                       # Number of float alu accesses
system.cpu3.num_func_calls                     101092                       # number of times a function call or return occured
system.cpu3.num_conditional_control_insts       293390                       # number of instructions that are conditional controls
system.cpu3.num_int_insts                     3705062                       # number of integer instructions
system.cpu3.num_fp_insts                           39                       # number of float instructions
system.cpu3.num_int_register_reads            7380163                       # number of times the integer registers were read
system.cpu3.num_int_register_writes           3052461                       # number of times the integer registers were written
system.cpu3.num_fp_register_reads                  63                       # number of times the floating registers were read
system.cpu3.num_fp_register_writes                 31                       # number of times the floating registers were written
system.cpu3.num_cc_register_reads             2250774                       # number of times the CC registers were read
system.cpu3.num_cc_register_writes            1160146                       # number of times the CC registers were written
system.cpu3.num_mem_refs                       857234                       # number of memory refs
system.cpu3.num_load_insts                     534356                       # Number of load instructions
system.cpu3.num_store_insts                    322878                       # Number of store instructions
system.cpu3.num_idle_cycles              4665461462.418789                       # Number of idle cycles
system.cpu3.num_busy_cycles              7380948.581212                       # Number of busy cycles
system.cpu3.not_idle_fraction                0.001580                       # Percentage of non-idle cycles
system.cpu3.idle_fraction                    0.998420                       # Percentage of idle cycles
system.cpu3.Branches                           426709                       # Number of branches fetched
system.cpu3.op_class::No_OpClass                60060      1.59%      1.59% # Class of executed instruction
system.cpu3.op_class::IntAlu                  2834555     74.99%     76.58% # Class of executed instruction
system.cpu3.op_class::IntMult                    7256      0.19%     76.77% # Class of executed instruction
system.cpu3.op_class::IntDiv                    20635      0.55%     77.32% # Class of executed instruction
system.cpu3.op_class::FloatAdd                     30      0.00%     77.32% # Class of executed instruction
system.cpu3.op_class::FloatCmp                      0      0.00%     77.32% # Class of executed instruction
system.cpu3.op_class::FloatCvt                      0      0.00%     77.32% # Class of executed instruction
system.cpu3.op_class::FloatMult                     0      0.00%     77.32% # Class of executed instruction
system.cpu3.op_class::FloatDiv                      0      0.00%     77.32% # Class of executed instruction
system.cpu3.op_class::FloatSqrt                     0      0.00%     77.32% # Class of executed instruction
system.cpu3.op_class::SimdAdd                       0      0.00%     77.32% # Class of executed instruction
system.cpu3.op_class::SimdAddAcc                    0      0.00%     77.32% # Class of executed instruction
system.cpu3.op_class::SimdAlu                       0      0.00%     77.32% # Class of executed instruction
system.cpu3.op_class::SimdCmp                       0      0.00%     77.32% # Class of executed instruction
system.cpu3.op_class::SimdCvt                       0      0.00%     77.32% # Class of executed instruction
system.cpu3.op_class::SimdMisc                      0      0.00%     77.32% # Class of executed instruction
system.cpu3.op_class::SimdMult                      0      0.00%     77.32% # Class of executed instruction
system.cpu3.op_class::SimdMultAcc                   0      0.00%     77.32% # Class of executed instruction
system.cpu3.op_class::SimdShift                     0      0.00%     77.32% # Class of executed instruction
system.cpu3.op_class::SimdShiftAcc                  0      0.00%     77.32% # Class of executed instruction
system.cpu3.op_class::SimdSqrt                      0      0.00%     77.32% # Class of executed instruction
system.cpu3.op_class::SimdFloatAdd                  0      0.00%     77.32% # Class of executed instruction
system.cpu3.op_class::SimdFloatAlu                  0      0.00%     77.32% # Class of executed instruction
system.cpu3.op_class::SimdFloatCmp                  0      0.00%     77.32% # Class of executed instruction
system.cpu3.op_class::SimdFloatCvt                  0      0.00%     77.32% # Class of executed instruction
system.cpu3.op_class::SimdFloatDiv                  0      0.00%     77.32% # Class of executed instruction
system.cpu3.op_class::SimdFloatMisc                 0      0.00%     77.32% # Class of executed instruction
system.cpu3.op_class::SimdFloatMult                 0      0.00%     77.32% # Class of executed instruction
system.cpu3.op_class::SimdFloatMultAcc              0      0.00%     77.32% # Class of executed instruction
system.cpu3.op_class::SimdFloatSqrt                 0      0.00%     77.32% # Class of executed instruction
system.cpu3.op_class::MemRead                  534356     14.14%     91.46% # Class of executed instruction
system.cpu3.op_class::MemWrite                 322878      8.54%    100.00% # Class of executed instruction
system.cpu3.op_class::IprAccess                     0      0.00%    100.00% # Class of executed instruction
system.cpu3.op_class::InstPrefetch                  0      0.00%    100.00% # Class of executed instruction
system.cpu3.op_class::total                   3779770                       # Class of executed instruction
system.iobus.trans_dist::ReadReq                  401                       # Transaction distribution
system.iobus.trans_dist::ReadResp                 401                       # Transaction distribution
system.iobus.trans_dist::WriteReq                3041                       # Transaction distribution
system.iobus.trans_dist::WriteResp               3041                       # Transaction distribution
system.iobus.trans_dist::MessageReq                54                       # Transaction distribution
system.iobus.trans_dist::MessageResp               54                       # Transaction distribution
system.iobus.pkt_count_system.pc.south_bridge.io_apic.int_master::system.ruby.l1_cntrl0.sequencer.pio-slave-port           22                       # Packet count per connected master and slave (bytes)
system.iobus.pkt_count_system.pc.south_bridge.io_apic.int_master::system.ruby.l1_cntrl1.sequencer.pio-slave-port           22                       # Packet count per connected master and slave (bytes)
system.iobus.pkt_count_system.pc.south_bridge.io_apic.int_master::system.ruby.l1_cntrl2.sequencer.pio-slave-port           20                       # Packet count per connected master and slave (bytes)
system.iobus.pkt_count_system.pc.south_bridge.io_apic.int_master::system.ruby.l1_cntrl3.sequencer.pio-slave-port           22                       # Packet count per connected master and slave (bytes)
system.iobus.pkt_count_system.pc.south_bridge.io_apic.int_master::total           86                       # Packet count per connected master and slave (bytes)
system.iobus.pkt_count_system.ruby.l1_cntrl0.sequencer.mem-master-port::system.pc.south_bridge.ide.pio          358                       # Packet count per connected master and slave (bytes)
system.iobus.pkt_count_system.ruby.l1_cntrl0.sequencer.mem-master-port::system.pc.south_bridge.io_apic.pio            8                       # Packet count per connected master and slave (bytes)
system.iobus.pkt_count_system.ruby.l1_cntrl0.sequencer.mem-master-port::system.pc.com_1.pio            2                       # Packet count per connected master and slave (bytes)
system.iobus.pkt_count_system.ruby.l1_cntrl0.sequencer.mem-master-port::system.ruby.l1_cntrl0.sequencer.pio-slave-port         1222                       # Packet count per connected master and slave (bytes)
system.iobus.pkt_count_system.ruby.l1_cntrl0.sequencer.mem-master-port::system.ruby.l1_cntrl1.sequencer.pio-slave-port            6                       # Packet count per connected master and slave (bytes)
system.iobus.pkt_count_system.ruby.l1_cntrl0.sequencer.mem-master-port::system.ruby.l1_cntrl3.sequencer.pio-slave-port            2                       # Packet count per connected master and slave (bytes)
system.iobus.pkt_count_system.ruby.l1_cntrl0.sequencer.mem-master-port::total         1598                       # Packet count per connected master and slave (bytes)
system.iobus.pkt_count_system.ruby.l1_cntrl1.sequencer.mem-master-port::system.pc.south_bridge.ide.pio          630                       # Packet count per connected master and slave (bytes)
system.iobus.pkt_count_system.ruby.l1_cntrl1.sequencer.mem-master-port::system.pc.south_bridge.io_apic.pio            8                       # Packet count per connected master and slave (bytes)
system.iobus.pkt_count_system.ruby.l1_cntrl1.sequencer.mem-master-port::system.ruby.l1_cntrl0.sequencer.pio-slave-port            4                       # Packet count per connected master and slave (bytes)
system.iobus.pkt_count_system.ruby.l1_cntrl1.sequencer.mem-master-port::system.ruby.l1_cntrl1.sequencer.pio-slave-port         1216                       # Packet count per connected master and slave (bytes)
system.iobus.pkt_count_system.ruby.l1_cntrl1.sequencer.mem-master-port::system.ruby.l1_cntrl2.sequencer.pio-slave-port            2                       # Packet count per connected master and slave (bytes)
system.iobus.pkt_count_system.ruby.l1_cntrl1.sequencer.mem-master-port::total         1860                       # Packet count per connected master and slave (bytes)
system.iobus.pkt_count_system.ruby.l1_cntrl2.sequencer.mem-master-port::system.pc.south_bridge.ide.pio          392                       # Packet count per connected master and slave (bytes)
system.iobus.pkt_count_system.ruby.l1_cntrl2.sequencer.mem-master-port::system.ruby.l1_cntrl0.sequencer.pio-slave-port            2                       # Packet count per connected master and slave (bytes)
system.iobus.pkt_count_system.ruby.l1_cntrl2.sequencer.mem-master-port::system.ruby.l1_cntrl1.sequencer.pio-slave-port            2                       # Packet count per connected master and slave (bytes)
system.iobus.pkt_count_system.ruby.l1_cntrl2.sequencer.mem-master-port::system.ruby.l1_cntrl2.sequencer.pio-slave-port         1208                       # Packet count per connected master and slave (bytes)
system.iobus.pkt_count_system.ruby.l1_cntrl2.sequencer.mem-master-port::system.ruby.l1_cntrl3.sequencer.pio-slave-port            2                       # Packet count per connected master and slave (bytes)
system.iobus.pkt_count_system.ruby.l1_cntrl2.sequencer.mem-master-port::total         1606                       # Packet count per connected master and slave (bytes)
system.iobus.pkt_count_system.ruby.l1_cntrl3.sequencer.mem-master-port::system.pc.south_bridge.ide.pio          460                       # Packet count per connected master and slave (bytes)
system.iobus.pkt_count_system.ruby.l1_cntrl3.sequencer.mem-master-port::system.pc.south_bridge.io_apic.pio            6                       # Packet count per connected master and slave (bytes)
system.iobus.pkt_count_system.ruby.l1_cntrl3.sequencer.mem-master-port::system.pc.com_1.pio          174                       # Packet count per connected master and slave (bytes)
system.iobus.pkt_count_system.ruby.l1_cntrl3.sequencer.mem-master-port::system.ruby.l1_cntrl0.sequencer.pio-slave-port            2                       # Packet count per connected master and slave (bytes)
system.iobus.pkt_count_system.ruby.l1_cntrl3.sequencer.mem-master-port::system.ruby.l1_cntrl3.sequencer.pio-slave-port         1200                       # Packet count per connected master and slave (bytes)
system.iobus.pkt_count_system.ruby.l1_cntrl3.sequencer.mem-master-port::total         1842                       # Packet count per connected master and slave (bytes)
system.iobus.pkt_count::total                    6992                       # Packet count per connected master and slave (bytes)
system.iobus.pkt_size_system.pc.south_bridge.io_apic.int_master::system.ruby.l1_cntrl0.sequencer.pio-slave-port           44                       # Cumulative packet size per connected master and slave (bytes)
system.iobus.pkt_size_system.pc.south_bridge.io_apic.int_master::system.ruby.l1_cntrl1.sequencer.pio-slave-port           44                       # Cumulative packet size per connected master and slave (bytes)
system.iobus.pkt_size_system.pc.south_bridge.io_apic.int_master::system.ruby.l1_cntrl2.sequencer.pio-slave-port           40                       # Cumulative packet size per connected master and slave (bytes)
system.iobus.pkt_size_system.pc.south_bridge.io_apic.int_master::system.ruby.l1_cntrl3.sequencer.pio-slave-port           44                       # Cumulative packet size per connected master and slave (bytes)
system.iobus.pkt_size_system.pc.south_bridge.io_apic.int_master::total          172                       # Cumulative packet size per connected master and slave (bytes)
system.iobus.pkt_size_system.ruby.l1_cntrl0.sequencer.mem-master-port::system.pc.south_bridge.ide.pio          200                       # Cumulative packet size per connected master and slave (bytes)
system.iobus.pkt_size_system.ruby.l1_cntrl0.sequencer.mem-master-port::system.pc.south_bridge.io_apic.pio           16                       # Cumulative packet size per connected master and slave (bytes)
system.iobus.pkt_size_system.ruby.l1_cntrl0.sequencer.mem-master-port::system.pc.com_1.pio            1                       # Cumulative packet size per connected master and slave (bytes)
system.iobus.pkt_size_system.ruby.l1_cntrl0.sequencer.mem-master-port::system.ruby.l1_cntrl0.sequencer.pio-slave-port         2444                       # Cumulative packet size per connected master and slave (bytes)
system.iobus.pkt_size_system.ruby.l1_cntrl0.sequencer.mem-master-port::system.ruby.l1_cntrl1.sequencer.pio-slave-port           12                       # Cumulative packet size per connected master and slave (bytes)
system.iobus.pkt_size_system.ruby.l1_cntrl0.sequencer.mem-master-port::system.ruby.l1_cntrl3.sequencer.pio-slave-port            4                       # Cumulative packet size per connected master and slave (bytes)
system.iobus.pkt_size_system.ruby.l1_cntrl0.sequencer.mem-master-port::total         2677                       # Cumulative packet size per connected master and slave (bytes)
system.iobus.pkt_size_system.ruby.l1_cntrl1.sequencer.mem-master-port::system.pc.south_bridge.ide.pio          360                       # Cumulative packet size per connected master and slave (bytes)
system.iobus.pkt_size_system.ruby.l1_cntrl1.sequencer.mem-master-port::system.pc.south_bridge.io_apic.pio           16                       # Cumulative packet size per connected master and slave (bytes)
system.iobus.pkt_size_system.ruby.l1_cntrl1.sequencer.mem-master-port::system.ruby.l1_cntrl0.sequencer.pio-slave-port            8                       # Cumulative packet size per connected master and slave (bytes)
system.iobus.pkt_size_system.ruby.l1_cntrl1.sequencer.mem-master-port::system.ruby.l1_cntrl1.sequencer.pio-slave-port         2432                       # Cumulative packet size per connected master and slave (bytes)
system.iobus.pkt_size_system.ruby.l1_cntrl1.sequencer.mem-master-port::system.ruby.l1_cntrl2.sequencer.pio-slave-port            4                       # Cumulative packet size per connected master and slave (bytes)
system.iobus.pkt_size_system.ruby.l1_cntrl1.sequencer.mem-master-port::total         2820                       # Cumulative packet size per connected master and slave (bytes)
system.iobus.pkt_size_system.ruby.l1_cntrl2.sequencer.mem-master-port::system.pc.south_bridge.ide.pio          220                       # Cumulative packet size per connected master and slave (bytes)
system.iobus.pkt_size_system.ruby.l1_cntrl2.sequencer.mem-master-port::system.ruby.l1_cntrl0.sequencer.pio-slave-port            4                       # Cumulative packet size per connected master and slave (bytes)
system.iobus.pkt_size_system.ruby.l1_cntrl2.sequencer.mem-master-port::system.ruby.l1_cntrl1.sequencer.pio-slave-port            4                       # Cumulative packet size per connected master and slave (bytes)
system.iobus.pkt_size_system.ruby.l1_cntrl2.sequencer.mem-master-port::system.ruby.l1_cntrl2.sequencer.pio-slave-port         2416                       # Cumulative packet size per connected master and slave (bytes)
system.iobus.pkt_size_system.ruby.l1_cntrl2.sequencer.mem-master-port::system.ruby.l1_cntrl3.sequencer.pio-slave-port            4                       # Cumulative packet size per connected master and slave (bytes)
system.iobus.pkt_size_system.ruby.l1_cntrl2.sequencer.mem-master-port::total         2648                       # Cumulative packet size per connected master and slave (bytes)
system.iobus.pkt_size_system.ruby.l1_cntrl3.sequencer.mem-master-port::system.pc.south_bridge.ide.pio          260                       # Cumulative packet size per connected master and slave (bytes)
system.iobus.pkt_size_system.ruby.l1_cntrl3.sequencer.mem-master-port::system.pc.south_bridge.io_apic.pio           12                       # Cumulative packet size per connected master and slave (bytes)
system.iobus.pkt_size_system.ruby.l1_cntrl3.sequencer.mem-master-port::system.pc.com_1.pio           87                       # Cumulative packet size per connected master and slave (bytes)
system.iobus.pkt_size_system.ruby.l1_cntrl3.sequencer.mem-master-port::system.ruby.l1_cntrl0.sequencer.pio-slave-port            4                       # Cumulative packet size per connected master and slave (bytes)
system.iobus.pkt_size_system.ruby.l1_cntrl3.sequencer.mem-master-port::system.ruby.l1_cntrl3.sequencer.pio-slave-port         2400                       # Cumulative packet size per connected master and slave (bytes)
system.iobus.pkt_size_system.ruby.l1_cntrl3.sequencer.mem-master-port::total         2763                       # Cumulative packet size per connected master and slave (bytes)
system.iobus.pkt_size::total                    11080                       # Cumulative packet size per connected master and slave (bytes)
system.iobus.reqLayer2.occupancy              1579500                       # Layer occupancy (ticks)
system.iobus.reqLayer2.utilization                0.0                       # Layer utilization (%)
system.iobus.reqLayer8.occupancy                19997                       # Layer occupancy (ticks)
system.iobus.reqLayer8.utilization                0.0                       # Layer utilization (%)
system.iobus.reqLayer12.occupancy              112500                       # Layer occupancy (ticks)
system.iobus.reqLayer12.utilization               0.0                       # Layer utilization (%)
system.iobus.reqLayer17.occupancy             1555489                       # Layer occupancy (ticks)
system.iobus.reqLayer17.utilization               0.0                       # Layer utilization (%)
system.iobus.reqLayer18.occupancy             1666963                       # Layer occupancy (ticks)
system.iobus.reqLayer18.utilization               0.0                       # Layer utilization (%)
system.iobus.reqLayer19.occupancy             1529988                       # Layer occupancy (ticks)
system.iobus.reqLayer19.utilization               0.0                       # Layer utilization (%)
system.iobus.reqLayer20.occupancy             1531490                       # Layer occupancy (ticks)
system.iobus.reqLayer20.utilization               0.0                       # Layer utilization (%)
system.iobus.respLayer0.occupancy               73960                       # Layer occupancy (ticks)
system.iobus.respLayer0.utilization               0.0                       # Layer utilization (%)
system.iobus.respLayer2.occupancy             1178500                       # Layer occupancy (ticks)
system.iobus.respLayer2.utilization               0.0                       # Layer utilization (%)
system.iobus.respLayer4.occupancy             1339000                       # Layer occupancy (ticks)
system.iobus.respLayer4.utilization               0.0                       # Layer utilization (%)
system.iobus.respLayer6.occupancy             1180000                       # Layer occupancy (ticks)
system.iobus.respLayer6.utilization               0.0                       # Layer utilization (%)
system.iobus.respLayer8.occupancy             1368000                       # Layer occupancy (ticks)
system.iobus.respLayer8.utilization               0.0                       # Layer utilization (%)
system.pc.south_bridge.ide.disks.dma_read_full_pages          356                       # Number of full page size DMA reads (not PRD).
system.pc.south_bridge.ide.disks.dma_read_bytes      1458176                       # Number of bytes transfered via DMA reads (not PRD).
system.pc.south_bridge.ide.disks.dma_read_txs          356                       # Number of DMA read transactions (not PRD).
system.pc.south_bridge.ide.disks.dma_write_full_pages            0                       # Number of full page size DMA writes.
system.pc.south_bridge.ide.disks.dma_write_bytes            0                       # Number of bytes transfered via DMA writes.
system.pc.south_bridge.ide.disks.dma_write_txs            0                       # Number of DMA write transactions.
system.ruby.clk_domain.clock                      500                       # Clock period in ticks
system.ruby.outstanding_req_hist_seqr::bucket_size            1                      
system.ruby.outstanding_req_hist_seqr::max_bucket            9                      
system.ruby.outstanding_req_hist_seqr::samples   2273542107                      
system.ruby.outstanding_req_hist_seqr::mean     1.001963                      
system.ruby.outstanding_req_hist_seqr::gmean     1.001361                      
system.ruby.outstanding_req_hist_seqr::stdev     0.044260                      
system.ruby.outstanding_req_hist_seqr    |           0      0.00%      0.00% |  2269079534     99.80%     99.80% |     4462573      0.20%    100.00% |           0      0.00%    100.00% |           0      0.00%    100.00% |           0      0.00%    100.00% |           0      0.00%    100.00% |           0      0.00%    100.00% |           0      0.00%    100.00% |           0      0.00%    100.00%
system.ruby.outstanding_req_hist_seqr::total   2273542107                      
system.ruby.latency_hist_seqr::bucket_size          128                      
system.ruby.latency_hist_seqr::max_bucket         1279                      
system.ruby.latency_hist_seqr::samples     2273542107                      
system.ruby.latency_hist_seqr::mean          1.066265                      
system.ruby.latency_hist_seqr::gmean         1.003689                      
system.ruby.latency_hist_seqr::stdev         2.970349                      
system.ruby.latency_hist_seqr            |  2273450490    100.00%    100.00% |       63001      0.00%    100.00% |       11200      0.00%    100.00% |        5156      0.00%    100.00% |        9607      0.00%    100.00% |        2449      0.00%    100.00% |         147      0.00%    100.00% |          48      0.00%    100.00% |           9      0.00%    100.00% |           0      0.00%    100.00%
system.ruby.latency_hist_seqr::total       2273542107                      
system.ruby.hit_latency_hist_seqr::bucket_size            2                      
system.ruby.hit_latency_hist_seqr::max_bucket           19                      
system.ruby.hit_latency_hist_seqr::samples   2272205840                      
system.ruby.hit_latency_hist_seqr::mean      1.004121                      
system.ruby.hit_latency_hist_seqr::gmean     1.000989                      
system.ruby.hit_latency_hist_seqr::stdev     0.202959                      
system.ruby.hit_latency_hist_seqr        |  2271269496     99.96%     99.96% |           0      0.00%     99.96% |           0      0.00%     99.96% |           0      0.00%     99.96% |           0      0.00%     99.96% |      936244      0.04%    100.00% |         100      0.00%    100.00% |           0      0.00%    100.00% |           0      0.00%    100.00% |           0      0.00%    100.00%
[...]
system.ruby.L1Cache_Controller.M.Store::total       340146                      
system.ruby.L1Cache_Controller.M.L2_Replacement |         679      0.12%      0.12% |      504178     88.00%     88.11% |       68091     11.88%    100.00% |           5      0.00%    100.00%
system.ruby.L1Cache_Controller.M.L2_Replacement::total       572953                      
system.ruby.L1Cache_Controller.M.L1_to_L2 |       12733      1.11%      1.11% |     1022526     89.28%     90.39% |      104822      9.15%     99.54% |        5247      0.46%    100.00%
system.ruby.L1Cache_Controller.M.L1_to_L2::total      1145328                      
system.ruby.L1Cache_Controller.M.Trigger_L2_to_L1D |        5625      1.09%      1.09% |      494438     95.67%     96.75% |       15853      3.07%     99.82% |         923      0.18%    100.00%
system.ruby.L1Cache_Controller.M.Trigger_L2_to_L1D::total       516839                      
system.ruby.L1Cache_Controller.M.Trigger_L2_to_L1I |        4902     18.39%     18.39% |        5141     19.28%     37.67% |       16052     60.21%     97.88% |         565      2.12%    100.00%
system.ruby.L1Cache_Controller.M.Trigger_L2_to_L1I::total        26660                      
system.ruby.L1Cache_Controller.M.Other_GETX |         518     20.92%     20.92% |          94      3.80%     24.72% |        1626     65.67%     90.39% |         238      9.61%    100.00%
system.ruby.L1Cache_Controller.M.Other_GETX::total         2476                      
system.ruby.L1Cache_Controller.M.Other_GETS |        5915     18.92%     18.92% |       10434     33.38%     52.30% |        6656     21.29%     73.59% |        8254     26.41%    100.00%
system.ruby.L1Cache_Controller.M.Other_GETS::total        31259                      
system.ruby.L1Cache_Controller.M.Merged_GETS |           4     10.53%     10.53% |           9     23.68%     34.21% |           1      2.63%     36.84% |          24     63.16%    100.00%
system.ruby.L1Cache_Controller.M.Merged_GETS::total           38                      
system.ruby.L1Cache_Controller.MM.Load   |      774938      0.82%      0.82% |    76239276     80.20%     81.02% |    17371443     18.27%     99.29% |      674805      0.71%    100.00%
system.ruby.L1Cache_Controller.MM.Load::total     95060462                      
system.ruby.L1Cache_Controller.MM.Store  |      930098      1.74%      1.74% |    39123583     73.16%     74.90% |    12684876     23.72%     98.61% |      741002      1.39%    100.00%
system.ruby.L1Cache_Controller.MM.Store::total     53479559                      
system.ruby.L1Cache_Controller.MM.L2_Replacement |        2471      0.32%      0.32% |      699035     89.24%     89.56% |       81780     10.44%    100.00% |          14      0.00%    100.00%
system.ruby.L1Cache_Controller.MM.L2_Replacement::total       783300                      
system.ruby.L1Cache_Controller.MM.L1_to_L2 |       42679      3.48%      3.48% |      969729     79.07%     82.55% |      201990     16.47%     99.02% |       11959      0.98%    100.00%
system.ruby.L1Cache_Controller.MM.L1_to_L2::total      1226357                      
system.ruby.L1Cache_Controller.MM.Trigger_L2_to_L1D |       17375      4.60%      4.60% |      257242     68.15%     72.75% |       97127     25.73%     98.48% |        5723      1.52%    100.00%
system.ruby.L1Cache_Controller.MM.Trigger_L2_to_L1D::total       377467                      
system.ruby.L1Cache_Controller.MM.Other_GETX |        6976     47.87%     47.87% |        1509     10.35%     58.22% |        4046     27.76%     85.99% |        2042     14.01%    100.00%
system.ruby.L1Cache_Controller.MM.Other_GETX::total        14573                      
system.ruby.L1Cache_Controller.MM.Other_GETS |       37544     57.33%     57.33% |       12285     18.76%     76.09% |        9762     14.91%     91.00% |        5895      9.00%    100.00%
system.ruby.L1Cache_Controller.MM.Other_GETS::total        65486                      
system.ruby.L1Cache_Controller.MM.Merged_GETS |           9     10.59%     10.59% |          27     31.76%     42.35% |          14     16.47%     58.82% |          35     41.18%    100.00%
system.ruby.L1Cache_Controller.MM.Merged_GETS::total           85                      
system.ruby.L1Cache_Controller.SR.Load   |        2511      8.16%      8.16% |       18689     60.71%     68.87% |        7926     25.75%     94.62% |        1657      5.38%    100.00%
system.ruby.L1Cache_Controller.SR.Load::total        30783                      
system.ruby.L1Cache_Controller.SR.Ifetch |       17654     13.95%     13.95% |       25830     20.40%     34.35% |       56386     44.54%     78.89% |       26719     21.11%    100.00%
system.ruby.L1Cache_Controller.SR.Ifetch::total       126589                      
system.ruby.L1Cache_Controller.SR.Store  |         138     27.54%     27.54% |          21      4.19%     31.74% |         276     55.09%     86.83% |          66     13.17%    100.00%
system.ruby.L1Cache_Controller.SR.Store::total          501                      
system.ruby.L1Cache_Controller.OR.Load   |        3433     65.07%     65.07% |         173      3.28%     68.35% |        1271     24.09%     92.44% |         399      7.56%    100.00%
system.ruby.L1Cache_Controller.OR.Load::total         5276                      
system.ruby.L1Cache_Controller.OR.Ifetch |       29985     67.48%     67.48% |        1579      3.55%     71.03% |        9804     22.06%     93.10% |        3067      6.90%    100.00%
system.ruby.L1Cache_Controller.OR.Ifetch::total        44435                      
system.ruby.L1Cache_Controller.OR.Store  |           9      3.53%      3.53% |           2      0.78%      4.31% |         204     80.00%     84.31% |          40     15.69%    100.00%
system.ruby.L1Cache_Controller.OR.Store::total          255                      
system.ruby.L1Cache_Controller.MR.Load   |        4834      0.95%      0.95% |      491839     96.45%     97.40% |       12577      2.47%     99.86% |         689      0.14%    100.00%
system.ruby.L1Cache_Controller.MR.Load::total       509939                      
system.ruby.L1Cache_Controller.MR.Ifetch |        4902     18.39%     18.39% |        5141     19.28%     37.67% |       16052     60.21%     97.88% |         565      2.12%    100.00%
system.ruby.L1Cache_Controller.MR.Ifetch::total        26660                      
system.ruby.L1Cache_Controller.MR.Store  |         791     11.46%     11.46% |        2599     37.67%     49.13% |        3276     47.48%     96.61% |         234      3.39%    100.00%
system.ruby.L1Cache_Controller.MR.Store::total         6900                      
system.ruby.L1Cache_Controller.MMR.Load  |        9172      2.86%      2.86% |      238544     74.41%     77.27% |       70384     21.96%     99.23% |        2469      0.77%    100.00%
system.ruby.L1Cache_Controller.MMR.Load::total       320569                      
system.ruby.L1Cache_Controller.MMR.Store |        8203     14.42%     14.42% |       18698     32.86%     47.28% |       26743     47.00%     94.28% |        3254      5.72%    100.00%
system.ruby.L1Cache_Controller.MMR.Store::total        56898                      
system.ruby.L1Cache_Controller.IM.Ack    |       15382      1.03%      1.03% |     1361161     91.29%     92.33% |      100226      6.72%     99.05% |       14188      0.95%    100.00%
system.ruby.L1Cache_Controller.IM.Ack::total      1490957                      
system.ruby.L1Cache_Controller.IM.Data   |        2245     42.30%     42.30% |         742     13.98%     56.28% |        1298     24.46%     80.74% |        1022     19.26%    100.00%
system.ruby.L1Cache_Controller.IM.Data::total         5307                      
system.ruby.L1Cache_Controller.IM.Exclusive_Data |        6221      1.23%      1.23% |      456834     90.24%     91.47% |       37732      7.45%     98.92% |        5468      1.08%    100.00%
system.ruby.L1Cache_Controller.IM.Exclusive_Data::total       506255                      
system.ruby.L1Cache_Controller.SM.Ack    |        5656     47.03%     47.03% |        1749     14.54%     61.57% |        2429     20.20%     81.77% |        2192     18.23%    100.00%
system.ruby.L1Cache_Controller.SM.Ack::total        12026                      
system.ruby.L1Cache_Controller.SM.Data   |        3880     39.14%     39.14% |        1828     18.44%     57.58% |        2561     25.83%     83.41% |        1645     16.59%    100.00%
system.ruby.L1Cache_Controller.SM.Data::total         9914                      
system.ruby.L1Cache_Controller.OM.Ack    |         135      8.23%      8.23% |         102      6.22%     14.44% |        1035     63.07%     77.51% |         369     22.49%    100.00%
system.ruby.L1Cache_Controller.OM.Ack::total         1641                      
system.ruby.L1Cache_Controller.OM.All_acks_no_sharers |          45      8.23%      8.23% |          34      6.22%     14.44% |         345     63.07%     77.51% |         123     22.49%    100.00%
system.ruby.L1Cache_Controller.OM.All_acks_no_sharers::total          547                      
system.ruby.L1Cache_Controller.ISM.Ack   |        3212     26.79%     26.79% |        2675     22.31%     49.10% |        4560     38.03%     87.12% |        1544     12.88%    100.00%
system.ruby.L1Cache_Controller.ISM.Ack::total        11991                      
system.ruby.L1Cache_Controller.ISM.All_acks_no_sharers |        6125     40.24%     40.24% |        2570     16.88%     57.13% |        3859     25.35%     82.48% |        2667     17.52%    100.00%
system.ruby.L1Cache_Controller.ISM.All_acks_no_sharers::total        15221                      
system.ruby.L1Cache_Controller.M_W.Load  |          43      4.06%      4.06% |          64      6.04%     10.09% |         844     79.62%     89.72% |         109     10.28%    100.00%
system.ruby.L1Cache_Controller.M_W.Load::total         1060                      
system.ruby.L1Cache_Controller.M_W.Store |          14     16.87%     16.87% |           7      8.43%     25.30% |           4      4.82%     30.12% |          58     69.88%    100.00%
system.ruby.L1Cache_Controller.M_W.Store::total           83                      
system.ruby.L1Cache_Controller.M_W.Ack   |        6527      8.58%      8.58% |       19451     25.58%     34.16% |       39651     52.15%     86.31% |       10408     13.69%    100.00%
system.ruby.L1Cache_Controller.M_W.Ack::total        76037                      
system.ruby.L1Cache_Controller.M_W.All_acks_no_sharers |       26002      2.70%      2.70% |      780253     80.89%     83.58% |      145547     15.09%     98.67% |       12800      1.33%    100.00%
system.ruby.L1Cache_Controller.M_W.All_acks_no_sharers::total       964602                      
system.ruby.L1Cache_Controller.MM_W.Load |           0      0.00%      0.00% |           0      0.00%      0.00% |           2    100.00%    100.00% |           0      0.00%    100.00%
system.ruby.L1Cache_Controller.MM_W.Load::total            2                      
system.ruby.L1Cache_Controller.MM_W.Store |         911     12.69%     12.69% |        2322     32.34%     45.03% |        3391     47.23%     92.26% |         556      7.74%    100.00%
system.ruby.L1Cache_Controller.MM_W.Store::total         7180                      
system.ruby.L1Cache_Controller.MM_W.Ack  |        3213     18.13%     18.13% |        5524     31.17%     49.29% |        7557     42.64%     91.93% |        1430      8.07%    100.00%
system.ruby.L1Cache_Controller.MM_W.Ack::total        17724                      
system.ruby.L1Cache_Controller.MM_W.All_acks_no_sharers |        6235      1.23%      1.23% |      456841     90.22%     91.46% |       37736      7.45%     98.91% |        5526      1.09%    100.00%
system.ruby.L1Cache_Controller.MM_W.All_acks_no_sharers::total       506338                      
system.ruby.L1Cache_Controller.IS.Other_GETS |           0      0.00%      0.00% |           0      0.00%      0.00% |           0      0.00%      0.00% |           2    100.00%    100.00%
system.ruby.L1Cache_Controller.IS.Other_GETS::total            2                      
system.ruby.L1Cache_Controller.IS.Ack    |       76018      2.70%      2.70% |     2318146     82.47%     85.18% |      390232     13.88%     99.06% |       26424      0.94%    100.00%
system.ruby.L1Cache_Controller.IS.Ack::total      2810820                      
system.ruby.L1Cache_Controller.IS.Shared_Ack |        6920     23.69%     23.69% |        7484     25.62%     49.31% |       10784     36.92%     86.23% |        4023     13.77%    100.00%
system.ruby.L1Cache_Controller.IS.Shared_Ack::total        29211                      
system.ruby.L1Cache_Controller.IS.Data   |        1475     18.16%     18.16% |        1873     23.06%     41.22% |        4005     49.31%     90.53% |         769      9.47%    100.00%
system.ruby.L1Cache_Controller.IS.Data::total         8122                      
system.ruby.L1Cache_Controller.IS.Shared_Data |       11837     19.80%     19.80% |       14743     24.66%     44.47% |       24753     41.41%     85.88% |        8441     14.12%    100.00%
system.ruby.L1Cache_Controller.IS.Shared_Data::total        59774                      
system.ruby.L1Cache_Controller.IS.Exclusive_Data |       26016      2.70%      2.70% |      780260     80.88%     83.58% |      145551     15.09%     98.67% |       12858      1.33%    100.00%
system.ruby.L1Cache_Controller.IS.Exclusive_Data::total       964685                      
system.ruby.L1Cache_Controller.SS.Load   |          41      1.56%      1.56% |         359     13.68%     15.24% |        2200     83.84%     99.09% |          24      0.91%    100.00%
system.ruby.L1Cache_Controller.SS.Load::total         2624                      
system.ruby.L1Cache_Controller.SS.Ifetch |        1029     10.92%     10.92% |        3660     38.85%     49.77% |        3772     40.03%     89.80% |         961     10.20%    100.00%
system.ruby.L1Cache_Controller.SS.Ifetch::total         9422                      
system.ruby.L1Cache_Controller.SS.Store  |           0      0.00%      0.00% |           3     42.86%     42.86% |           0      0.00%     42.86% |           4     57.14%    100.00%
system.ruby.L1Cache_Controller.SS.Store::total            7                      
system.ruby.L1Cache_Controller.SS.Ack    |        6917     16.80%     16.80% |        9275     22.53%     39.33% |       18708     45.44%     84.77% |        6270     15.23%    100.00%
system.ruby.L1Cache_Controller.SS.Ack::total        41170                      
system.ruby.L1Cache_Controller.SS.Shared_Ack |        2510     16.56%     16.56% |        5414     35.72%     52.28% |        5532     36.50%     88.77% |        1702     11.23%    100.00%
system.ruby.L1Cache_Controller.SS.Shared_Ack::total        15158                      
system.ruby.L1Cache_Controller.SS.All_acks |       13276     19.76%     19.76% |       16603     24.71%     44.46% |       28131     41.86%     86.33% |        9189     13.67%    100.00%
system.ruby.L1Cache_Controller.SS.All_acks::total        67199                      
system.ruby.L1Cache_Controller.SS.All_acks_no_sharers |          36      5.16%      5.16% |          13      1.87%      7.03% |         627     89.96%     96.99% |          21      3.01%    100.00%
system.ruby.L1Cache_Controller.SS.All_acks_no_sharers::total          697                      
system.ruby.L1Cache_Controller.OI.Load   |           1     33.33%     33.33% |           0      0.00%     33.33% |           2     66.67%    100.00% |           0      0.00%    100.00%
system.ruby.L1Cache_Controller.OI.Load::total            3                      
system.ruby.L1Cache_Controller.OI.Ifetch |           1     50.00%     50.00% |           0      0.00%     50.00% |           1     50.00%    100.00% |           0      0.00%    100.00%
system.ruby.L1Cache_Controller.OI.Ifetch::total            2                      
system.ruby.L1Cache_Controller.OI.Store  |           0      0.00%      0.00% |           0      0.00%      0.00% |           2    100.00%    100.00% |           0      0.00%    100.00%
system.ruby.L1Cache_Controller.OI.Store::total            2                      
system.ruby.L1Cache_Controller.OI.Writeback_Ack |        1439     28.27%     28.27% |        2057     40.41%     68.68% |        1563     30.71%     99.39% |          31      0.61%    100.00%
system.ruby.L1Cache_Controller.OI.Writeback_Ack::total         5090                      
system.ruby.L1Cache_Controller.MI.Load   |          15      3.25%      3.25% |         423     91.76%     95.01% |          23      4.99%    100.00% |           0      0.00%    100.00%
system.ruby.L1Cache_Controller.MI.Load::total          461                      
system.ruby.L1Cache_Controller.MI.Ifetch |           2     66.67%     66.67% |           0      0.00%     66.67% |           1     33.33%    100.00% |           0      0.00%    100.00%
system.ruby.L1Cache_Controller.MI.Ifetch::total            3                      
system.ruby.L1Cache_Controller.MI.Store  |           8     21.62%     21.62% |           6     16.22%     37.84% |          23     62.16%    100.00% |           0      0.00%    100.00%
system.ruby.L1Cache_Controller.MI.Store::total           37                      
system.ruby.L1Cache_Controller.MI.Writeback_Ack |        3150      0.23%      0.23% |     1203213     88.72%     88.95% |      149871     11.05%    100.00% |          19      0.00%    100.00%
system.ruby.L1Cache_Controller.MI.Writeback_Ack::total      1356253                      
system.ruby.L1Cache_Controller.ST.Complete_L2_to_L1 |       20303     12.86%     12.86% |       44540     28.21%     41.07% |       64588     40.91%     81.98% |       28442     18.02%    100.00%
system.ruby.L1Cache_Controller.ST.Complete_L2_to_L1::total       157873                      
system.ruby.L1Cache_Controller.OT.Complete_L2_to_L1 |       33427     66.90%     66.90% |        1754      3.51%     70.41% |       11279     22.57%     92.98% |        3506      7.02%    100.00%
system.ruby.L1Cache_Controller.OT.Complete_L2_to_L1::total        49966                      
system.ruby.L1Cache_Controller.MT.Load   |           0      0.00%      0.00% |          11    100.00%    100.00% |           0      0.00%    100.00% |           0      0.00%    100.00%
system.ruby.L1Cache_Controller.MT.Load::total           11                      
system.ruby.L1Cache_Controller.MT.Store  |           0      0.00%      0.00% |          19    100.00%    100.00% |           0      0.00%    100.00% |           0      0.00%    100.00%
system.ruby.L1Cache_Controller.MT.Store::total           19                      
system.ruby.L1Cache_Controller.MT.Complete_L2_to_L1 |       10527      1.94%      1.94% |      499579     91.92%     93.86% |       31905      5.87%     99.73% |        1488      0.27%    100.00%
system.ruby.L1Cache_Controller.MT.Complete_L2_to_L1::total       543499                      
system.ruby.L1Cache_Controller.MMT.Load  |           0      0.00%      0.00% |          26    100.00%    100.00% |           0      0.00%    100.00% |           0      0.00%    100.00%
system.ruby.L1Cache_Controller.MMT.Load::total           26                      
system.ruby.L1Cache_Controller.MMT.Store |           0      0.00%      0.00% |         280    100.00%    100.00% |           0      0.00%    100.00% |           0      0.00%    100.00%
system.ruby.L1Cache_Controller.MMT.Store::total          280                      
system.ruby.L1Cache_Controller.MMT.Complete_L2_to_L1 |       17375      4.60%      4.60% |      257242     68.15%     72.75% |       97127     25.73%     98.48% |        5723      1.52%    100.00%
system.ruby.L1Cache_Controller.MMT.Complete_L2_to_L1::total       377467                      

---------- End Simulation Statistics   ----------
