
---------- Begin Simulation Statistics ----------
sim_seconds                                  1.998701                       # Number of seconds simulated
sim_ticks                                1998700714000                       # Number of ticks simulated
final_tick                               54339356732501                       # Number of ticks from beginning of simulation (restored from checkpoints and never reset)
sim_freq                                 1000000000000                       # Frequency of simulated ticks
host_inst_rate                                 103465                       # Simulator instruction rate (inst/s)
host_op_rate                                   154228                       # Simulator op (including micro ops) rate (op/s)
host_tick_rate                              285028460                       # Simulator tick rate (ticks/s)
host_mem_usage                                1813840                       # Number of bytes of host memory used
host_seconds                                  7012.28                       # Real time elapsed on the host
sim_insts                                   725523971                       # Number of instructions simulated
sim_ops                                    1081489674                       # Number of ops (including micro ops) simulated
system.voltage_domain.voltage                       1                       # Voltage in Volts
system.clk_domain.clock                          1000                       # Clock period in ticks
system.mem_ctrls.bytes_read::ruby.dir_cntrl0    431361664                       # Number of bytes read from this memory
system.mem_ctrls.bytes_read::total          431361664                       # Number of bytes read from this memory
system.mem_ctrls.bytes_written::ruby.dir_cntrl0    223933888                       # Number of bytes written to this memory
system.mem_ctrls.bytes_written::total       223933888                       # Number of bytes written to this memory
system.mem_ctrls.num_reads::ruby.dir_cntrl0      6740026                       # Number of read requests responded to by this memory
system.mem_ctrls.num_reads::total             6740026                       # Number of read requests responded to by this memory
system.mem_ctrls.num_writes::ruby.dir_cntrl0      3498967                       # Number of write requests responded to by this memory
system.mem_ctrls.num_writes::total            3498967                       # Number of write requests responded to by this memory
system.mem_ctrls.bw_read::ruby.dir_cntrl0    215821039                       # Total read bandwidth from this memory (bytes/s)
system.mem_ctrls.bw_read::total             215821039                       # Total read bandwidth from this memory (bytes/s)
system.mem_ctrls.bw_write::ruby.dir_cntrl0    112039730                       # Write bandwidth from this memory (bytes/s)
system.mem_ctrls.bw_write::total            112039730                       # Write bandwidth from this memory (bytes/s)
system.mem_ctrls.bw_total::ruby.dir_cntrl0    327860768                       # Total bandwidth to/from this memory (bytes/s)
system.mem_ctrls.bw_total::total            327860768                       # Total bandwidth to/from this memory (bytes/s)
system.mem_ctrls.readReqs                     6740026                       # Number of read requests accepted
system.mem_ctrls.writeReqs                    3498967                       # Number of write requests accepted
system.mem_ctrls.readBursts                   6740026                       # Number of DRAM read bursts, including those serviced by the write queue
system.mem_ctrls.writeBursts                  3498967                       # Number of DRAM write bursts, including those merged in the write queue
system.mem_ctrls.bytesReadDRAM              430128704                       # Total number of bytes read from DRAM
system.mem_ctrls.bytesReadWrQ                 1232960                       # Total number of bytes read from write queue
system.mem_ctrls.bytesWritten               223926272                       # Total number of bytes written to DRAM
system.mem_ctrls.bytesReadSys               431361664                       # Total read bytes from the system interface side
system.mem_ctrls.bytesWrittenSys            223933888                       # Total written bytes from the system interface side
system.mem_ctrls.servicedByWrQ                  19265                       # Number of DRAM read bursts serviced by the write queue
system.mem_ctrls.mergedWrBursts                   111                       # Number of DRAM write bursts merged with an existing one
system.mem_ctrls.neitherReadNorWriteReqs            0                       # Number of requests that are neither read nor write
system.mem_ctrls.perBankRdBursts::0            418705                       # Per bank write bursts
system.mem_ctrls.perBankRdBursts::1            411802                       # Per bank write bursts
system.mem_ctrls.perBankRdBursts::2            414023                       # Per bank write bursts
system.mem_ctrls.perBankRdBursts::3            451587                       # Per bank write bursts
system.mem_ctrls.perBankRdBursts::4            461852                       # Per bank write bursts
system.mem_ctrls.perBankRdBursts::5            442397                       # Per bank write bursts
system.mem_ctrls.perBankRdBursts::6            444848                       # Per bank write bursts
system.mem_ctrls.perBankRdBursts::7            401202                       # Per bank write bursts
system.mem_ctrls.perBankRdBursts::8            402991                       # Per bank write bursts
system.mem_ctrls.perBankRdBursts::9            424854                       # Per bank write bursts
system.mem_ctrls.perBankRdBursts::10           396002                       # Per bank write bursts
system.mem_ctrls.perBankRdBursts::11           400547                       # Per bank write bursts
system.mem_ctrls.perBankRdBursts::12           413354                       # Per bank write bursts
system.mem_ctrls.perBankRdBursts::13           399249                       # Per bank write bursts
system.mem_ctrls.perBankRdBursts::14           400279                       # Per bank write bursts
system.mem_ctrls.perBankRdBursts::15           437069                       # Per bank write bursts
system.mem_ctrls.perBankWrBursts::0            210593                       # Per bank write bursts
system.mem_ctrls.perBankWrBursts::1            212293                       # Per bank write bursts
system.mem_ctrls.perBankWrBursts::2            215686                       # Per bank write bursts
system.mem_ctrls.perBankWrBursts::3            250059                       # Per bank write bursts
system.mem_ctrls.perBankWrBursts::4            254810                       # Per bank write bursts
system.mem_ctrls.perBankWrBursts::5            242906                       # Per bank write bursts
system.mem_ctrls.perBankWrBursts::6            237540                       # Per bank write bursts
system.mem_ctrls.perBankWrBursts::7            201902                       # Per bank write bursts
system.mem_ctrls.perBankWrBursts::8            203122                       # Per bank write bursts
system.mem_ctrls.perBankWrBursts::9            224703                       # Per bank write bursts
system.mem_ctrls.perBankWrBursts::10           197614                       # Per bank write bursts
system.mem_ctrls.perBankWrBursts::11           201961                       # Per bank write bursts
system.mem_ctrls.perBankWrBursts::12           215260                       # Per bank write bursts
system.mem_ctrls.perBankWrBursts::13           199567                       # Per bank write bursts
system.mem_ctrls.perBankWrBursts::14           200382                       # Per bank write bursts
system.mem_ctrls.perBankWrBursts::15           230450                       # Per bank write bursts
system.mem_ctrls.numRdRetry                         0                       # Number of times read queue was full causing retry
system.mem_ctrls.numWrRetry                         0                       # Number of times write queue was full causing retry
system.mem_ctrls.totGap                  1998700757000                       # Total gap between requests
system.mem_ctrls.readPktSize::0                     0                       # Read request sizes (log2)
system.mem_ctrls.readPktSize::1                     0                       # Read request sizes (log2)
system.mem_ctrls.readPktSize::2                     0                       # Read request sizes (log2)
system.mem_ctrls.readPktSize::3                     0                       # Read request sizes (log2)
system.mem_ctrls.readPktSize::4                     0                       # Read request sizes (log2)
system.mem_ctrls.readPktSize::5                     0                       # Read request sizes (log2)
system.mem_ctrls.readPktSize::6               6740026                       # Read request sizes (log2)
system.mem_ctrls.writePktSize::0                    0                       # Write request sizes (log2)
system.mem_ctrls.writePktSize::1                    0                       # Write request sizes (log2)
system.mem_ctrls.writePktSize::2                    0                       # Write request sizes (log2)
system.mem_ctrls.writePktSize::3                    0                       # Write request sizes (log2)
system.mem_ctrls.writePktSize::4                    0                       # Write request sizes (log2)
system.mem_ctrls.writePktSize::5                    0                       # Write request sizes (log2)
system.mem_ctrls.writePktSize::6              3498967                       # Write request sizes (log2)
system.mem_ctrls.rdQLenPdf::0                 6691205                       # What read queue length does an incoming req see
system.mem_ctrls.rdQLenPdf::1                   29556                       # What read queue length does an incoming req see
system.mem_ctrls.rdQLenPdf::2                       0                       # What read queue length does an incoming req see
system.mem_ctrls.rdQLenPdf::3                       0                       # What read queue length does an incoming req see
system.mem_ctrls.rdQLenPdf::4                       0                       # What read queue length does an incoming req see
system.mem_ctrls.rdQLenPdf::5                       0                       # What read queue length does an incoming req see
system.mem_ctrls.rdQLenPdf::6                       0                       # What read queue length does an incoming req see
system.mem_ctrls.rdQLenPdf::7                       0                       # What read queue length does an incoming req see
system.mem_ctrls.rdQLenPdf::8                       0                       # What read queue length does an incoming req see
system.mem_ctrls.rdQLenPdf::9                       0                       # What read queue length does an incoming req see
system.mem_ctrls.rdQLenPdf::10                      0                       # What read queue length does an incoming req see
system.mem_ctrls.rdQLenPdf::11                      0                       # What read queue length does an incoming req see
system.mem_ctrls.rdQLenPdf::12                      0                       # What read queue length does an incoming req see
system.mem_ctrls.rdQLenPdf::13                      0                       # What read queue length does an incoming req see
system.mem_ctrls.rdQLenPdf::14                      0                       # What read queue length does an incoming req see
system.mem_ctrls.rdQLenPdf::15                      0                       # What read queue length does an incoming req see
system.mem_ctrls.rdQLenPdf::16                      0                       # What read queue length does an incoming req see
system.mem_ctrls.rdQLenPdf::17                      0                       # What read queue length does an incoming req see
system.mem_ctrls.rdQLenPdf::18                      0                       # What read queue length does an incoming req see
system.mem_ctrls.rdQLenPdf::19                      0                       # What read queue length does an incoming req see
system.mem_ctrls.rdQLenPdf::20                      0                       # What read queue length does an incoming req see
system.mem_ctrls.rdQLenPdf::21                      0                       # What read queue length does an incoming req see
system.mem_ctrls.rdQLenPdf::22                      0                       # What read queue length does an incoming req see
system.mem_ctrls.rdQLenPdf::23                      0                       # What read queue length does an incoming req see
system.mem_ctrls.rdQLenPdf::24                      0                       # What read queue length does an incoming req see
system.mem_ctrls.rdQLenPdf::25                      0                       # What read queue length does an incoming req see
system.mem_ctrls.rdQLenPdf::26                      0                       # What read queue length does an incoming req see
system.mem_ctrls.rdQLenPdf::27                      0                       # What read queue length does an incoming req see
system.mem_ctrls.rdQLenPdf::28                      0                       # What read queue length does an incoming req see
system.mem_ctrls.rdQLenPdf::29                      0                       # What read queue length does an incoming req see
system.mem_ctrls.rdQLenPdf::30                      0                       # What read queue length does an incoming req see
system.mem_ctrls.rdQLenPdf::31                      0                       # What read queue length does an incoming req see
system.mem_ctrls.wrQLenPdf::0                       0                       # What write queue length does an incoming req see
system.mem_ctrls.wrQLenPdf::1                       0                       # What write queue length does an incoming req see
system.mem_ctrls.wrQLenPdf::2                       0                       # What write queue length does an incoming req see
system.mem_ctrls.wrQLenPdf::3                       0                       # What write queue length does an incoming req see
system.mem_ctrls.wrQLenPdf::4                       0                       # What write queue length does an incoming req see
system.mem_ctrls.wrQLenPdf::5                       0                       # What write queue length does an incoming req see
system.mem_ctrls.wrQLenPdf::6                       0                       # What write queue length does an incoming req see
system.mem_ctrls.wrQLenPdf::7                       0                       # What write queue length does an incoming req see
system.mem_ctrls.wrQLenPdf::8                       0                       # What write queue length does an incoming req see
system.mem_ctrls.wrQLenPdf::9                       0                       # What write queue length does an incoming req see
system.mem_ctrls.wrQLenPdf::10                      0                       # What write queue length does an incoming req see
system.mem_ctrls.wrQLenPdf::11                      0                       # What write queue length does an incoming req see
system.mem_ctrls.wrQLenPdf::12                      0                       # What write queue length does an incoming req see
system.mem_ctrls.wrQLenPdf::13                      0                       # What write queue length does an incoming req see
system.mem_ctrls.wrQLenPdf::14                      0                       # What write queue length does an incoming req see
system.mem_ctrls.wrQLenPdf::15                   3032                       # What write queue length does an incoming req see
system.mem_ctrls.wrQLenPdf::16                   3771                       # What write queue length does an incoming req see
system.mem_ctrls.wrQLenPdf::17                 214376                       # What write queue length does an incoming req see
system.mem_ctrls.wrQLenPdf::18                 218599                       # What write queue length does an incoming req see
system.mem_ctrls.wrQLenPdf::19                 218727                       # What write queue length does an incoming req see
system.mem_ctrls.wrQLenPdf::20                 218883                       # What write queue length does an incoming req see
system.mem_ctrls.wrQLenPdf::21                 218712                       # What write queue length does an incoming req see
system.mem_ctrls.wrQLenPdf::22                 218587                       # What write queue length does an incoming req see
system.mem_ctrls.wrQLenPdf::23                 218531                       # What write queue length does an incoming req see
system.mem_ctrls.wrQLenPdf::24                 218512                       # What write queue length does an incoming req see
system.mem_ctrls.wrQLenPdf::25                 218473                       # What write queue length does an incoming req see
system.mem_ctrls.wrQLenPdf::26                 218426                       # What write queue length does an incoming req see
system.mem_ctrls.wrQLenPdf::27                 218411                       # What write queue length does an incoming req see
system.mem_ctrls.wrQLenPdf::28                 218424                       # What write queue length does an incoming req see
system.mem_ctrls.wrQLenPdf::29                 218389                       # What write queue length does an incoming req see
system.mem_ctrls.wrQLenPdf::30                 218361                       # What write queue length does an incoming req see
system.mem_ctrls.wrQLenPdf::31                 218334                       # What write queue length does an incoming req see
system.mem_ctrls.wrQLenPdf::32                 218273                       # What write queue length does an incoming req see
system.mem_ctrls.wrQLenPdf::33                     34                       # What write queue length does an incoming req see
system.mem_ctrls.wrQLenPdf::34                      1                       # What write queue length does an incoming req see
system.mem_ctrls.wrQLenPdf::35                      0                       # What write queue length does an incoming req see
system.mem_ctrls.wrQLenPdf::36                      0                       # What write queue length does an incoming req see
system.mem_ctrls.wrQLenPdf::37                      0                       # What write queue length does an incoming req see
system.mem_ctrls.wrQLenPdf::38                      0                       # What write queue length does an incoming req see
system.mem_ctrls.wrQLenPdf::39                      0                       # What write queue length does an incoming req see
system.mem_ctrls.wrQLenPdf::40                      0                       # What write queue length does an incoming req see
system.mem_ctrls.wrQLenPdf::41                      0                       # What write queue length does an incoming req see
system.mem_ctrls.wrQLenPdf::42                      0                       # What write queue length does an incoming req see
system.mem_ctrls.wrQLenPdf::43                      0                       # What write queue length does an incoming req see
system.mem_ctrls.wrQLenPdf::44                      0                       # What write queue length does an incoming req see
system.mem_ctrls.wrQLenPdf::45                      0                       # What write queue length does an incoming req see
system.mem_ctrls.wrQLenPdf::46                      0                       # What write queue length does an incoming req see
system.mem_ctrls.wrQLenPdf::47                      0                       # What write queue length does an incoming req see
system.mem_ctrls.wrQLenPdf::48                      0                       # What write queue length does an incoming req see
system.mem_ctrls.wrQLenPdf::49                      0                       # What write queue length does an incoming req see
system.mem_ctrls.wrQLenPdf::50                      0                       # What write queue length does an incoming req see
system.mem_ctrls.wrQLenPdf::51                      0                       # What write queue length does an incoming req see
system.mem_ctrls.wrQLenPdf::52                      0                       # What write queue length does an incoming req see
system.mem_ctrls.wrQLenPdf::53                      0                       # What write queue length does an incoming req see
system.mem_ctrls.wrQLenPdf::54                      0                       # What write queue length does an incoming req see
system.mem_ctrls.wrQLenPdf::55                      0                       # What write queue length does an incoming req see
system.mem_ctrls.wrQLenPdf::56                      0                       # What write queue length does an incoming req see
system.mem_ctrls.wrQLenPdf::57                      0                       # What write queue length does an incoming req see
system.mem_ctrls.wrQLenPdf::58                      0                       # What write queue length does an incoming req see
system.mem_ctrls.wrQLenPdf::59                      0                       # What write queue length does an incoming req see
system.mem_ctrls.wrQLenPdf::60                      0                       # What write queue length does an incoming req see
system.mem_ctrls.wrQLenPdf::61                      0                       # What write queue length does an incoming req see
system.mem_ctrls.wrQLenPdf::62                      0                       # What write queue length does an incoming req see
system.mem_ctrls.wrQLenPdf::63                      0                       # What write queue length does an incoming req see
system.mem_ctrls.bytesPerActivate::samples      5366741                       # Bytes accessed per row activation
system.mem_ctrls.bytesPerActivate::mean    121.871886                       # Bytes accessed per row activation
system.mem_ctrls.bytesPerActivate::gmean    82.715344                       # Bytes accessed per row activation
system.mem_ctrls.bytesPerActivate::stdev   186.600454                       # Bytes accessed per row activation
system.mem_ctrls.bytesPerActivate::0-127      4489549     83.66%     83.66% # Bytes accessed per row activation
system.mem_ctrls.bytesPerActivate::128-255       381845      7.12%     90.77% # Bytes accessed per row activation
system.mem_ctrls.bytesPerActivate::256-383       127618      2.38%     93.15% # Bytes accessed per row activation
system.mem_ctrls.bytesPerActivate::384-511        87462      1.63%     94.78% # Bytes accessed per row activation
system.mem_ctrls.bytesPerActivate::512-639        56523      1.05%     95.83% # Bytes accessed per row activation
system.mem_ctrls.bytesPerActivate::640-767        36217      0.67%     96.51% # Bytes accessed per row activation
system.mem_ctrls.bytesPerActivate::768-895        26526      0.49%     97.00% # Bytes accessed per row activation
system.mem_ctrls.bytesPerActivate::896-1023        22945      0.43%     97.43% # Bytes accessed per row activation
system.mem_ctrls.bytesPerActivate::1024-1151       138056      2.57%    100.00% # Bytes accessed per row activation
system.mem_ctrls.bytesPerActivate::total      5366741                       # Bytes accessed per row activation
system.mem_ctrls.rdPerTurnAround::samples       218230                       # Reads before turning the bus around for writes
system.mem_ctrls.rdPerTurnAround::mean      30.796742                       # Reads before turning the bus around for writes
system.mem_ctrls.rdPerTurnAround::gmean     23.117989                       # Reads before turning the bus around for writes
system.mem_ctrls.rdPerTurnAround::stdev    179.631470                       # Reads before turning the bus around for writes
system.mem_ctrls.rdPerTurnAround::0-511        217749     99.78%     99.78% # Reads before turning the bus around for writes
system.mem_ctrls.rdPerTurnAround::512-1023           81      0.04%     99.82% # Reads before turning the bus around for writes
system.mem_ctrls.rdPerTurnAround::1024-1535           53      0.02%     99.84% # Reads before turning the bus around for writes
system.mem_ctrls.rdPerTurnAround::1536-2047           62      0.03%     99.87% # Reads before turning the bus around for writes
system.mem_ctrls.rdPerTurnAround::2048-2559           48      0.02%     99.89% # Reads before turning the bus around for writes
system.mem_ctrls.rdPerTurnAround::2560-3071           37      0.02%     99.91% # Reads before turning the bus around for writes
system.mem_ctrls.rdPerTurnAround::3072-3583           43      0.02%     99.93% # Reads before turning the bus around for writes
system.mem_ctrls.rdPerTurnAround::3584-4095           46      0.02%     99.95% # Reads before turning the bus around for writes
system.mem_ctrls.rdPerTurnAround::4096-4607           29      0.01%     99.96% # Reads before turning the bus around for writes
system.mem_ctrls.rdPerTurnAround::4608-5119           21      0.01%     99.97% # Reads before turning the bus around for writes
system.mem_ctrls.rdPerTurnAround::5120-5631            8      0.00%     99.98% # Reads before turning the bus around for writes
system.mem_ctrls.rdPerTurnAround::5632-6143            7      0.00%     99.98% # Reads before turning the bus around for writes
system.mem_ctrls.rdPerTurnAround::6144-6655            7      0.00%     99.98% # Reads before turning the bus around for writes
system.mem_ctrls.rdPerTurnAround::6656-7167            4      0.00%     99.98% # Reads before turning the bus around for writes
system.mem_ctrls.rdPerTurnAround::7168-7679            7      0.00%     99.99% # Reads before turning the bus around for writes
system.mem_ctrls.rdPerTurnAround::7680-8191           10      0.00%     99.99% # Reads before turning the bus around for writes
system.mem_ctrls.rdPerTurnAround::8192-8703            4      0.00%     99.99% # Reads before turning the bus around for writes
system.mem_ctrls.rdPerTurnAround::8704-9215            3      0.00%     99.99% # Reads before turning the bus around for writes
system.mem_ctrls.rdPerTurnAround::10752-11263            2      0.00%    100.00% # Reads before turning the bus around for writes
system.mem_ctrls.rdPerTurnAround::11264-11775            5      0.00%    100.00% # Reads before turning the bus around for writes
system.mem_ctrls.rdPerTurnAround::11776-12287            1      0.00%    100.00% # Reads before turning the bus around for writes
system.mem_ctrls.rdPerTurnAround::12288-12799            1      0.00%    100.00% # Reads before turning the bus around for writes
system.mem_ctrls.rdPerTurnAround::12800-13311            1      0.00%    100.00% # Reads before turning the bus around for writes
system.mem_ctrls.rdPerTurnAround::14336-14847            1      0.00%    100.00% # Reads before turning the bus around for writes
system.mem_ctrls.rdPerTurnAround::total        218230                       # Reads before turning the bus around for writes
system.mem_ctrls.wrPerTurnAround::samples       218230                       # Writes before turning the bus around for reads
system.mem_ctrls.wrPerTurnAround::mean      16.032846                       # Writes before turning the bus around for reads
system.mem_ctrls.wrPerTurnAround::gmean     16.031021                       # Writes before turning the bus around for reads
system.mem_ctrls.wrPerTurnAround::stdev      0.251382                       # Writes before turning the bus around for reads
system.mem_ctrls.wrPerTurnAround::16           214439     98.26%     98.26% # Writes before turning the bus around for reads
system.mem_ctrls.wrPerTurnAround::17              465      0.21%     98.48% # Writes before turning the bus around for reads
system.mem_ctrls.wrPerTurnAround::18             3276      1.50%     99.98% # Writes before turning the bus around for reads
system.mem_ctrls.wrPerTurnAround::19               49      0.02%    100.00% # Writes before turning the bus around for reads
system.mem_ctrls.wrPerTurnAround::20                1      0.00%    100.00% # Writes before turning the bus around for reads
system.mem_ctrls.wrPerTurnAround::total        218230                       # Writes before turning the bus around for reads
system.mem_ctrls.totQLat                 134938341937                       # Total ticks spent queuing
system.mem_ctrls.totMemAccLat            260952610687                       # Total ticks spent from burst creation until serviced by the DRAM
system.mem_ctrls.totBusLat                33603805000                       # Total ticks spent in databus transfers
system.mem_ctrls.avgQLat                     20077.84                       # Average queueing delay per DRAM burst
system.mem_ctrls.avgBusLat                    5000.00                       # Average bus latency per DRAM burst
system.mem_ctrls.avgMemAccLat                38827.84                       # Average memory access latency per DRAM burst
system.mem_ctrls.avgRdBW                       215.20                       # Average DRAM read bandwidth in MiByte/s
system.mem_ctrls.avgWrBW                       112.04                       # Average achieved write bandwidth in MiByte/s
system.mem_ctrls.avgRdBWSys                    215.82                       # Average system read bandwidth in MiByte/s
system.mem_ctrls.avgWrBWSys                    112.04                       # Average system write bandwidth in MiByte/s
system.mem_ctrls.peakBW                      12800.00                       # Theoretical peak bandwidth in MiByte/s
system.mem_ctrls.busUtil                         2.56                       # Data bus utilization in percentage
system.mem_ctrls.busUtilRead                     1.68                       # Data bus utilization in percentage for reads
system.mem_ctrls.busUtilWrite                    0.88                       # Data bus utilization in percentage for writes
system.mem_ctrls.avgRdQLen                       1.00                       # Average read queue length when enqueuing
system.mem_ctrls.avgWrQLen                      25.57                       # Average write queue length when enqueuing
system.mem_ctrls.readRowHits                  3694498                       # Number of row buffer hits during reads
system.mem_ctrls.writeRowHits                 1158367                       # Number of row buffer hits during writes
system.mem_ctrls.readRowHitRate                 54.97                       # Row buffer hit rate for reads
system.mem_ctrls.writeRowHitRate                33.11                       # Row buffer hit rate for writes
system.mem_ctrls.avgGap                     195204.82                       # Average gap between requests
system.mem_ctrls.pageHitRate                    47.49                       # Row buffer hit rate, read and write combined
system.mem_ctrls_0.actEnergy              21409587360                       # Energy for activate commands per rank (pJ)
system.mem_ctrls_0.preEnergy              11681818500                       # Energy for precharge commands per rank (pJ)
system.mem_ctrls_0.readEnergy             26950170000                       # Energy for read commands per rank (pJ)
system.mem_ctrls_0.writeEnergy            11833393680                       # Energy for write commands per rank (pJ)
system.mem_ctrls_0.refreshEnergy         130788918000                       # Energy for refresh commands per rank (pJ)
system.mem_ctrls_0.actBackEnergy         728351023410                       # Energy for active background per rank (pJ)
system.mem_ctrls_0.preBackEnergy         562553055750                       # Energy for precharge background per rank (pJ)
system.mem_ctrls_0.totalEnergy           1493567966700                       # Total energy per rank (pJ)
system.mem_ctrls_0.averagePower            745.878076                       # Core power per rank (mW)
system.mem_ctrls_0.memoryStateTime::IDLE 929311592250                       # Time in different power states
system.mem_ctrls_0.memoryStateTime::REF   66740960000                       # Time in different power states
system.mem_ctrls_0.memoryStateTime::PRE_PDN            0                       # Time in different power states
system.mem_ctrls_0.memoryStateTime::ACT  1002645455750                       # Time in different power states
system.mem_ctrls_0.memoryStateTime::ACT_PDN            0                       # Time in different power states
system.mem_ctrls_1.actEnergy              19194673680                       # Energy for activate commands per rank (pJ)
system.mem_ctrls_1.preEnergy              10473284250                       # Energy for precharge commands per rank (pJ)
system.mem_ctrls_1.readEnergy             25595263200                       # Energy for read commands per rank (pJ)
system.mem_ctrls_1.writeEnergy            10842076800                       # Energy for write commands per rank (pJ)
system.mem_ctrls_1.refreshEnergy         130788918000                       # Energy for refresh commands per rank (pJ)
system.mem_ctrls_1.actBackEnergy         722493127710                       # Energy for active background per rank (pJ)
system.mem_ctrls_1.preBackEnergy         567691560750                       # Energy for precharge background per rank (pJ)
system.mem_ctrls_1.totalEnergy           1487078904390                       # Total energy per rank (pJ)
system.mem_ctrls_1.averagePower            742.637480                       # Core power per rank (mW)
system.mem_ctrls_1.memoryStateTime::IDLE 937632647001                       # Time in different power states
system.mem_ctrls_1.memoryStateTime::REF   66740960000                       # Time in different power states
system.mem_ctrls_1.memoryStateTime::PRE_PDN            0                       # Time in different power states
system.mem_ctrls_1.memoryStateTime::ACT  994328137749                       # Time in different power states
system.mem_ctrls_1.memoryStateTime::ACT_PDN            0                       # Time in different power states
system.cpu_voltage_domain.voltage                   1                       # Voltage in Volts
system.cpu_clk_domain.clock                       500                       # Clock period in ticks
system.cpu0.apic_clk_domain.clock                8000                       # Clock period in ticks
system.cpu0.numCycles                      4000937264                       # number of cpu cycles simulated
system.cpu0.numWorkItemsStarted                     0                       # number of work items this cpu started
system.cpu0.numWorkItemsCompleted                   0                       # number of work items this cpu completed
system.cpu0.kern.inst.arm                           0                       # number of arm instructions executed
system.cpu0.kern.inst.quiesce                       0                       # number of quiesce instructions executed
system.cpu0.committedInsts                    1638468                       # Number of instructions committed
system.cpu0.committedOps                      3563989                       # Number of ops (including micro ops) committed
system.cpu0.num_int_alu_accesses              3487043                       # Number of integer alu accesses
system.cpu0.num_fp_alu_accesses                    39                       # Number of float alu accesses
system.cpu0.num_func_calls                     104876                       # number of times a function call or return occured
system.cpu0.num_conditional_control_insts       235586                       # number of instructions that are conditional controls
system.cpu0.num_int_insts                     3487043                       # number of integer instructions
system.cpu0.num_fp_insts                           39                       # number of float instructions
system.cpu0.num_int_register_reads            7092754                       # number of times the integer registers were read
system.cpu0.num_int_register_writes           2887771                       # number of times the integer registers were written
system.cpu0.num_fp_register_reads                  63                       # number of times the floating registers were read
system.cpu0.num_fp_register_writes                 31                       # number of times the floating registers were written
system.cpu0.num_cc_register_reads             1964697                       # number of times the CC registers were read
system.cpu0.num_cc_register_writes            1065923                       # number of times the CC registers were written
system.cpu0.num_mem_refs                       842737                       # number of memory refs
system.cpu0.num_load_insts                     519371                       # Number of load instructions
system.cpu0.num_store_insts                    323366                       # Number of store instructions
system.cpu0.num_idle_cycles              3987587689.287686                       # Number of idle cycles
system.cpu0.num_busy_cycles              13349574.712314                       # Number of busy cycles
system.cpu0.not_idle_fraction                0.003337                       # Percentage of non-idle cycles
system.cpu0.idle_fraction                    0.996663                       # Percentage of idle cycles
system.cpu0.Branches                           372573                       # Number of branches fetched
system.cpu0.op_class::No_OpClass                61779      1.73%      1.73% # Class of executed instruction
system.cpu0.op_class::IntAlu                  2632262     73.86%     75.59% # Class of executed instruction
system.cpu0.op_class::IntMult                    6610      0.19%     75.78% # Class of executed instruction
system.cpu0.op_class::IntDiv                    20593      0.58%     76.35% # Class of executed instruction
system.cpu0.op_class::FloatAdd                     30      0.00%     76.35% # Class of executed instruction
system.cpu0.op_class::FloatCmp                      0      0.00%     76.35% # Class of executed instruction
system.cpu0.op_class::FloatCvt                      0      0.00%     76.35% # Class of executed instruction
system.cpu0.op_class::FloatMult                     0      0.00%     76.35% # Class of executed instruction
system.cpu0.op_class::FloatDiv                      0      0.00%     76.35% # Class of executed instruction
system.cpu0.op_class::FloatSqrt                     0      0.00%     76.35% # Class of executed instruction
system.cpu0.op_class::SimdAdd                       0      0.00%     76.35% # Class of executed instruction
system.cpu0.op_class::SimdAddAcc                    0      0.00%     76.35% # Class of executed instruction
system.cpu0.op_class::SimdAlu                       0      0.00%     76.35% # Class of executed instruction
system.cpu0.op_class::SimdCmp                       0      0.00%     76.35% # Class of executed instruction
system.cpu0.op_class::SimdCvt                       0      0.00%     76.35% # Class of executed instruction
system.cpu0.op_class::SimdMisc                      0      0.00%     76.35% # Class of executed instruction
system.cpu0.op_class::SimdMult                      0      0.00%     76.35% # Class of executed instruction
system.cpu0.op_class::SimdMultAcc                   0      0.00%     76.35% # Class of executed instruction
system.cpu0.op_class::SimdShift                     0      0.00%     76.35% # Class of executed instruction
system.cpu0.op_class::SimdShiftAcc                  0      0.00%     76.35% # Class of executed instruction
system.cpu0.op_class::SimdSqrt                      0      0.00%     76.35% # Class of executed instruction
system.cpu0.op_class::SimdFloatAdd                  0      0.00%     76.35% # Class of executed instruction
system.cpu0.op_class::SimdFloatAlu                  0      0.00%     76.35% # Class of executed instruction
system.cpu0.op_class::SimdFloatCmp                  0      0.00%     76.35% # Class of executed instruction
system.cpu0.op_class::SimdFloatCvt                  0      0.00%     76.35% # Class of executed instruction
system.cpu0.op_class::SimdFloatDiv                  0      0.00%     76.35% # Class of executed instruction
system.cpu0.op_class::SimdFloatMisc                 0      0.00%     76.35% # Class of executed instruction
system.cpu0.op_class::SimdFloatMult                 0      0.00%     76.35% # Class of executed instruction
system.cpu0.op_class::SimdFloatMultAcc              0      0.00%     76.35% # Class of executed instruction
system.cpu0.op_class::SimdFloatSqrt                 0      0.00%     76.35% # Class of executed instruction
system.cpu0.op_class::MemRead                  519371     14.57%     90.93% # Class of executed instruction
system.cpu0.op_class::MemWrite                 323366      9.07%    100.00% # Class of executed instruction
system.cpu0.op_class::IprAccess                     0      0.00%    100.00% # Class of executed instruction
system.cpu0.op_class::InstPrefetch                  0      0.00%    100.00% # Class of executed instruction
system.cpu0.op_class::total                   3564011                       # Class of executed instruction
system.cpu1.apic_clk_domain.clock                8000                       # Clock period in ticks
system.cpu1.numCycles                      3999613483                       # number of cpu cycles simulated
system.cpu1.numWorkItemsStarted                     0                       # number of work items this cpu started
system.cpu1.numWorkItemsCompleted                   0                       # number of work items this cpu completed
system.cpu1.kern.inst.arm                           0                       # number of arm instructions executed
system.cpu1.kern.inst.quiesce                       0                       # number of quiesce instructions executed
system.cpu1.committedInsts                  717217176                       # Number of instructions committed
system.cpu1.committedOps                   1064544394                       # Number of ops (including micro ops) committed
system.cpu1.num_int_alu_accesses            464051755                       # Number of integer alu accesses
system.cpu1.num_fp_alu_accesses             708837958                       # Number of float alu accesses
system.cpu1.num_func_calls                     904490                       # number of times a function call or return occured
system.cpu1.num_conditional_control_insts     10841584                       # number of instructions that are conditional controls
system.cpu1.num_int_insts                   464051755                       # number of integer instructions
system.cpu1.num_fp_insts                    708837958                       # number of float instructions
system.cpu1.num_int_register_reads          972204364                       # number of times the integer registers were read
system.cpu1.num_int_register_writes         343902806                       # number of times the integer registers were written
system.cpu1.num_fp_register_reads          1593836506                       # number of times the floating registers were read
system.cpu1.num_fp_register_writes          654311894                       # number of times the floating registers were written
system.cpu1.num_cc_register_reads           111707703                       # number of times the CC registers were read
system.cpu1.num_cc_register_writes          201672193                       # number of times the CC registers were written
system.cpu1.num_mem_refs                    129389143                       # number of memory refs
system.cpu1.num_load_insts                   75467155                       # Number of load instructions
system.cpu1.num_store_insts                  53921988                       # Number of store instructions
system.cpu1.num_idle_cycles              13833036.596707                       # Number of idle cycles
system.cpu1.num_busy_cycles              3985780446.403293                       # Number of busy cycles
system.cpu1.not_idle_fraction                0.996541                       # Percentage of non-idle cycles
system.cpu1.idle_fraction                    0.003459                       # Percentage of idle cycles
system.cpu1.Branches                         12038427                       # Number of branches fetched
system.cpu1.op_class::No_OpClass               314457      0.03%      0.03% # Class of executed instruction
system.cpu1.op_class::IntAlu                431448750     40.53%     40.56% # Class of executed instruction
system.cpu1.op_class::IntMult                   89799      0.01%     40.57% # Class of executed instruction
system.cpu1.op_class::IntDiv                     1882      0.00%     40.57% # Class of executed instruction
system.cpu1.op_class::FloatAdd              503316886     47.28%     87.85% # Class of executed instruction
system.cpu1.op_class::FloatCmp                      0      0.00%     87.85% # Class of executed instruction
system.cpu1.op_class::FloatCvt                      0      0.00%     87.85% # Class of executed instruction
system.cpu1.op_class::FloatMult                     0      0.00%     87.85% # Class of executed instruction
system.cpu1.op_class::FloatDiv                      0      0.00%     87.85% # Class of executed instruction
system.cpu1.op_class::FloatSqrt                     0      0.00%     87.85% # Class of executed instruction
system.cpu1.op_class::SimdAdd                       0      0.00%     87.85% # Class of executed instruction
system.cpu1.op_class::SimdAddAcc                    0      0.00%     87.85% # Class of executed instruction
system.cpu1.op_class::SimdAlu                       0      0.00%     87.85% # Class of executed instruction
system.cpu1.op_class::SimdCmp                       0      0.00%     87.85% # Class of executed instruction
system.cpu1.op_class::SimdCvt                       0      0.00%     87.85% # Class of executed instruction
system.cpu1.op_class::SimdMisc                      0      0.00%     87.85% # Class of executed instruction
system.cpu1.op_class::SimdMult                      0      0.00%     87.85% # Class of executed instruction
system.cpu1.op_class::SimdMultAcc                   0      0.00%     87.85% # Class of executed instruction
system.cpu1.op_class::SimdShift                     0      0.00%     87.85% # Class of executed instruction
system.cpu1.op_class::SimdShiftAcc                  0      0.00%     87.85% # Class of executed instruction
system.cpu1.op_class::SimdSqrt                      0      0.00%     87.85% # Class of executed instruction
system.cpu1.op_class::SimdFloatAdd                  0      0.00%     87.85% # Class of executed instruction
system.cpu1.op_class::SimdFloatAlu                  0      0.00%     87.85% # Class of executed instruction
system.cpu1.op_class::SimdFloatCmp                  0      0.00%     87.85% # Class of executed instruction
system.cpu1.op_class::SimdFloatCvt                  0      0.00%     87.85% # Class of executed instruction
system.cpu1.op_class::SimdFloatDiv                  0      0.00%     87.85% # Class of executed instruction
system.cpu1.op_class::SimdFloatMisc                 0      0.00%     87.85% # Class of executed instruction
system.cpu1.op_class::SimdFloatMult                 0      0.00%     87.85% # Class of executed instruction
system.cpu1.op_class::SimdFloatMultAcc              0      0.00%     87.85% # Class of executed instruction
system.cpu1.op_class::SimdFloatSqrt                 0      0.00%     87.85% # Class of executed instruction
system.cpu1.op_class::MemRead                75467155      7.09%     94.93% # Class of executed instruction
system.cpu1.op_class::MemWrite               53921988      5.07%    100.00% # Class of executed instruction
system.cpu1.op_class::IprAccess                     0      0.00%    100.00% # Class of executed instruction
system.cpu1.op_class::InstPrefetch                  0      0.00%    100.00% # Class of executed instruction
system.cpu1.op_class::total                1064560917                       # Class of executed instruction
system.cpu2.apic_clk_domain.clock                8000                       # Clock period in ticks
system.cpu2.numCycles                      3991372053                       # number of cpu cycles simulated
system.cpu2.numWorkItemsStarted                     0                       # number of work items this cpu started
system.cpu2.numWorkItemsCompleted                   0                       # number of work items this cpu completed
system.cpu2.kern.inst.arm                           0                       # number of arm instructions executed
system.cpu2.kern.inst.quiesce                       0                       # number of quiesce instructions executed
system.cpu2.committedInsts                    1388049                       # Number of instructions committed
system.cpu2.committedOps                      3003821                       # Number of ops (including micro ops) committed
system.cpu2.num_int_alu_accesses              2937043                       # Number of integer alu accesses
system.cpu2.num_fp_alu_accesses                     0                       # Number of float alu accesses
system.cpu2.num_func_calls                      82808                       # number of times a function call or return occured
system.cpu2.num_conditional_control_insts       211234                       # number of instructions that are conditional controls
system.cpu2.num_int_insts                     2937043                       # number of integer instructions
system.cpu2.num_fp_insts                            0                       # number of float instructions
system.cpu2.num_int_register_reads            5968623                       # number of times the integer registers were read
system.cpu2.num_int_register_writes           2439183                       # number of times the integer registers were written
system.cpu2.num_fp_register_reads                   0                       # number of times the floating registers were read
system.cpu2.num_fp_register_writes                  0                       # number of times the floating registers were written
system.cpu2.num_cc_register_reads             1695165                       # number of times the CC registers were read
system.cpu2.num_cc_register_writes             886283                       # number of times the CC registers were written
system.cpu2.num_mem_refs                       714692                       # number of memory refs
system.cpu2.num_load_insts                     444625                       # Number of load instructions
system.cpu2.num_store_insts                    270067                       # Number of store instructions
system.cpu2.num_idle_cycles              3979232209.473116                       # Number of idle cycles
system.cpu2.num_busy_cycles              12139843.526884                       # Number of busy cycles
system.cpu2.not_idle_fraction                0.003042                       # Percentage of non-idle cycles
system.cpu2.idle_fraction                    0.996958                       # Percentage of idle cycles
system.cpu2.Branches                           321087                       # Number of branches fetched
system.cpu2.op_class::No_OpClass                57285      1.91%      1.91% # Class of executed instruction
system.cpu2.op_class::IntAlu                  2205437     73.42%     75.33% # Class of executed instruction
system.cpu2.op_class::IntMult                    6013      0.20%     75.53% # Class of executed instruction
system.cpu2.op_class::IntDiv                    20398      0.68%     76.21% # Class of executed instruction
system.cpu2.op_class::FloatAdd                      0      0.00%     76.21% # Class of executed instruction
system.cpu2.op_class::FloatCmp                      0      0.00%     76.21% # Class of executed instruction
system.cpu2.op_class::FloatCvt                      0      0.00%     76.21% # Class of executed instruction
system.cpu2.op_class::FloatMult                     0      0.00%     76.21% # Class of executed instruction
system.cpu2.op_class::FloatDiv                      0      0.00%     76.21% # Class of executed instruction
system.cpu2.op_class::FloatSqrt                     0      0.00%     76.21% # Class of executed instruction
system.cpu2.op_class::SimdAdd                       0      0.00%     76.21% # Class of executed instruction
system.cpu2.op_class::SimdAddAcc                    0      0.00%     76.21% # Class of executed instruction
system.cpu2.op_class::SimdAlu                       0      0.00%     76.21% # Class of executed instruction
system.cpu2.op_class::SimdCmp                       0      0.00%     76.21% # Class of executed instruction
system.cpu2.op_class::SimdCvt                       0      0.00%     76.21% # Class of executed instruction
system.cpu2.op_class::SimdMisc                      0      0.00%     76.21% # Class of executed instruction
system.cpu2.op_class::SimdMult                      0      0.00%     76.21% # Class of executed instruction
system.cpu2.op_class::SimdMultAcc                   0      0.00%     76.21% # Class of executed instruction
system.cpu2.op_class::SimdShift                     0      0.00%     76.21% # Class of executed instruction
system.cpu2.op_class::SimdShiftAcc                  0      0.00%     76.21% # Class of executed instruction
system.cpu2.op_class::SimdSqrt                      0      0.00%     76.21% # Class of executed instruction
system.cpu2.op_class::SimdFloatAdd                  0      0.00%     76.21% # Class of executed instruction
system.cpu2.op_class::SimdFloatAlu                  0      0.00%     76.21% # Class of executed instruction
system.cpu2.op_class::SimdFloatCmp                  0      0.00%     76.21% # Class of executed instruction
system.cpu2.op_class::SimdFloatCvt                  0      0.00%     76.21% # Class of executed instruction
system.cpu2.op_class::SimdFloatDiv                  0      0.00%     76.21% # Class of executed instruction
system.cpu2.op_class::SimdFloatMisc                 0      0.00%     76.21% # Class of executed instruction
system.cpu2.op_class::SimdFloatMult                 0      0.00%     76.21% # Class of executed instruction
system.cpu2.op_class::SimdFloatMultAcc              0      0.00%     76.21% # Class of executed instruction
system.cpu2.op_class::SimdFloatSqrt                 0      0.00%     76.21% # Class of executed instruction
system.cpu2.op_class::MemRead                  444625     14.80%     91.01% # Class of executed instruction
system.cpu2.op_class::MemWrite                 270067      8.99%    100.00% # Class of executed instruction
system.cpu2.op_class::IprAccess                     0      0.00%    100.00% # Class of executed instruction
system.cpu2.op_class::InstPrefetch                  0      0.00%    100.00% # Class of executed instruction
system.cpu2.op_class::total                   3003825                       # Class of executed instruction
system.cpu3.apic_clk_domain.clock                8000                       # Clock period in ticks
system.cpu3.numCycles                      3995033183                       # number of cpu cycles simulated
system.cpu3.numWorkItemsStarted                     0                       # number of work items this cpu started
system.cpu3.numWorkItemsCompleted                   0                       # number of work items this cpu completed
system.cpu3.kern.inst.arm                           0                       # number of arm instructions executed
system.cpu3.kern.inst.quiesce                       0                       # number of quiesce instructions executed
system.cpu3.committedInsts                    3946166                       # Number of instructions committed
system.cpu3.committedOps                      7922405                       # Number of ops (including micro ops) committed
system.cpu3.num_int_alu_accesses              7778218                       # Number of integer alu accesses
system.cpu3.num_fp_alu_accesses                  1778                       # Number of float alu accesses
system.cpu3.num_func_calls                     206646                       # number of times a function call or return occured
system.cpu3.num_conditional_control_insts       663458                       # number of instructions that are conditional controls
system.cpu3.num_int_insts                     7778218                       # number of integer instructions
system.cpu3.num_fp_insts                         1778                       # number of float instructions
system.cpu3.num_int_register_reads           15494407                       # number of times the integer registers were read
system.cpu3.num_int_register_writes           6335434                       # number of times the integer registers were written
system.cpu3.num_fp_register_reads                2988                       # number of times the floating registers were read
system.cpu3.num_fp_register_writes               1416                       # number of times the floating registers were written
system.cpu3.num_cc_register_reads             4992818                       # number of times the CC registers were read
system.cpu3.num_cc_register_writes            2681606                       # number of times the CC registers were written
system.cpu3.num_mem_refs                      1794691                       # number of memory refs
system.cpu3.num_load_insts                    1162013                       # Number of load instructions
system.cpu3.num_store_insts                    632678                       # Number of store instructions
system.cpu3.num_idle_cycles              3971542536.194694                       # Number of idle cycles
system.cpu3.num_busy_cycles              23490646.805306                       # Number of busy cycles
system.cpu3.not_idle_fraction                0.005880                       # Percentage of non-idle cycles
system.cpu3.idle_fraction                    0.994120                       # Percentage of idle cycles
system.cpu3.Branches                           908432                       # Number of branches fetched
system.cpu3.op_class::No_OpClass                61610      0.78%      0.78% # Class of executed instruction
system.cpu3.op_class::IntAlu                  6036919     76.20%     76.98% # Class of executed instruction
system.cpu3.op_class::IntMult                    7073      0.09%     77.07% # Class of executed instruction
system.cpu3.op_class::IntDiv                    20859      0.26%     77.33% # Class of executed instruction
system.cpu3.op_class::FloatAdd                   1344      0.02%     77.35% # Class of executed instruction
system.cpu3.op_class::FloatCmp                      0      0.00%     77.35% # Class of executed instruction
system.cpu3.op_class::FloatCvt                      0      0.00%     77.35% # Class of executed instruction
system.cpu3.op_class::FloatMult                     0      0.00%     77.35% # Class of executed instruction
system.cpu3.op_class::FloatDiv                      0      0.00%     77.35% # Class of executed instruction
system.cpu3.op_class::FloatSqrt                     0      0.00%     77.35% # Class of executed instruction
system.cpu3.op_class::SimdAdd                       0      0.00%     77.35% # Class of executed instruction
system.cpu3.op_class::SimdAddAcc                    0      0.00%     77.35% # Class of executed instruction
system.cpu3.op_class::SimdAlu                       0      0.00%     77.35% # Class of executed instruction
system.cpu3.op_class::SimdCmp                       0      0.00%     77.35% # Class of executed instruction
system.cpu3.op_class::SimdCvt                       0      0.00%     77.35% # Class of executed instruction
system.cpu3.op_class::SimdMisc                      0      0.00%     77.35% # Class of executed instruction
system.cpu3.op_class::SimdMult                      0      0.00%     77.35% # Class of executed instruction
system.cpu3.op_class::SimdMultAcc                   0      0.00%     77.35% # Class of executed instruction
system.cpu3.op_class::SimdShift                     0      0.00%     77.35% # Class of executed instruction
system.cpu3.op_class::SimdShiftAcc                  0      0.00%     77.35% # Class of executed instruction
system.cpu3.op_class::SimdSqrt                      0      0.00%     77.35% # Class of executed instruction
system.cpu3.op_class::SimdFloatAdd                  0      0.00%     77.35% # Class of executed instruction
system.cpu3.op_class::SimdFloatAlu                  0      0.00%     77.35% # Class of executed instruction
system.cpu3.op_class::SimdFloatCmp                  0      0.00%     77.35% # Class of executed instruction
system.cpu3.op_class::SimdFloatCvt                  0      0.00%     77.35% # Class of executed instruction
system.cpu3.op_class::SimdFloatDiv                  0      0.00%     77.35% # Class of executed instruction
system.cpu3.op_class::SimdFloatMisc                 0      0.00%     77.35% # Class of executed instruction
system.cpu3.op_class::SimdFloatMult                 0      0.00%     77.35% # Class of executed instruction
system.cpu3.op_class::SimdFloatMultAcc              0      0.00%     77.35% # Class of executed instruction
system.cpu3.op_class::SimdFloatSqrt                 0      0.00%     77.35% # Class of executed instruction
system.cpu3.op_class::MemRead                 1162013     14.67%     92.01% # Class of executed instruction
system.cpu3.op_class::MemWrite                 632678      7.99%    100.00% # Class of executed instruction
system.cpu3.op_class::IprAccess                     0      0.00%    100.00% # Class of executed instruction
system.cpu3.op_class::InstPrefetch                  0      0.00%    100.00% # Class of executed instruction
system.cpu3.op_class::total                   7922496                       # Class of executed instruction
system.iobus.trans_dist::ReadReq                   82                       # Transaction distribution
system.iobus.trans_dist::ReadResp                  82                       # Transaction distribution
system.iobus.trans_dist::WriteReq                2060                       # Transaction distribution
system.iobus.trans_dist::WriteResp               2060                       # Transaction distribution
system.iobus.trans_dist::MessageReq                12                       # Transaction distribution
system.iobus.trans_dist::MessageResp               12                       # Transaction distribution
system.iobus.pkt_count_system.pc.south_bridge.io_apic.int_master::system.ruby.l0_cntrl0.sequencer.pio-slave-port            2                       # Packet count per connected master and slave (bytes)
system.iobus.pkt_count_system.pc.south_bridge.io_apic.int_master::system.ruby.l0_cntrl1.sequencer.pio-slave-port            4                       # Packet count per connected master and slave (bytes)
system.iobus.pkt_count_system.pc.south_bridge.io_apic.int_master::system.ruby.l0_cntrl2.sequencer.pio-slave-port            2                       # Packet count per connected master and slave (bytes)
system.iobus.pkt_count_system.pc.south_bridge.io_apic.int_master::system.ruby.l0_cntrl3.sequencer.pio-slave-port            2                       # Packet count per connected master and slave (bytes)
system.iobus.pkt_count_system.pc.south_bridge.io_apic.int_master::total           10                       # Packet count per connected master and slave (bytes)
system.iobus.pkt_count_system.ruby.l0_cntrl0.sequencer.mem-master-port::system.pc.south_bridge.io_apic.pio            6                       # Packet count per connected master and slave (bytes)
system.iobus.pkt_count_system.ruby.l0_cntrl0.sequencer.mem-master-port::system.pc.com_1.pio           22                       # Packet count per connected master and slave (bytes)
system.iobus.pkt_count_system.ruby.l0_cntrl0.sequencer.mem-master-port::system.ruby.l0_cntrl0.sequencer.pio-slave-port         1012                       # Packet count per connected master and slave (bytes)
system.iobus.pkt_count_system.ruby.l0_cntrl0.sequencer.mem-master-port::system.ruby.l0_cntrl1.sequencer.pio-slave-port            2                       # Packet count per connected master and slave (bytes)
system.iobus.pkt_count_system.ruby.l0_cntrl0.sequencer.mem-master-port::total         1042                       # Packet count per connected master and slave (bytes)
system.iobus.pkt_count_system.ruby.l0_cntrl1.sequencer.mem-master-port::system.pc.south_bridge.io_apic.pio           14                       # Packet count per connected master and slave (bytes)
system.iobus.pkt_count_system.ruby.l0_cntrl1.sequencer.mem-master-port::system.pc.com_1.pio          162                       # Packet count per connected master and slave (bytes)
system.iobus.pkt_count_system.ruby.l0_cntrl1.sequencer.mem-master-port::system.ruby.l0_cntrl0.sequencer.pio-slave-port            2                       # Packet count per connected master and slave (bytes)
system.iobus.pkt_count_system.ruby.l0_cntrl1.sequencer.mem-master-port::system.ruby.l0_cntrl1.sequencer.pio-slave-port         1020                       # Packet count per connected master and slave (bytes)
system.iobus.pkt_count_system.ruby.l0_cntrl1.sequencer.mem-master-port::system.ruby.l0_cntrl2.sequencer.pio-slave-port            2                       # Packet count per connected master and slave (bytes)
system.iobus.pkt_count_system.ruby.l0_cntrl1.sequencer.mem-master-port::total         1200                       # Packet count per connected master and slave (bytes)
system.iobus.pkt_count_system.ruby.l0_cntrl2.sequencer.mem-master-port::system.pc.south_bridge.io_apic.pio            8                       # Packet count per connected master and slave (bytes)
system.iobus.pkt_count_system.ruby.l0_cntrl2.sequencer.mem-master-port::system.ruby.l0_cntrl2.sequencer.pio-slave-port         1010                       # Packet count per connected master and slave (bytes)
system.iobus.pkt_count_system.ruby.l0_cntrl2.sequencer.mem-master-port::system.ruby.l0_cntrl3.sequencer.pio-slave-port            2                       # Packet count per connected master and slave (bytes)
system.iobus.pkt_count_system.ruby.l0_cntrl2.sequencer.mem-master-port::total         1020                       # Packet count per connected master and slave (bytes)
system.iobus.pkt_count_system.ruby.l0_cntrl3.sequencer.mem-master-port::system.pc.south_bridge.io_apic.pio            8                       # Packet count per connected master and slave (bytes)
system.iobus.pkt_count_system.ruby.l0_cntrl3.sequencer.mem-master-port::system.ruby.l0_cntrl0.sequencer.pio-slave-port            2                       # Packet count per connected master and slave (bytes)
system.iobus.pkt_count_system.ruby.l0_cntrl3.sequencer.mem-master-port::system.ruby.l0_cntrl1.sequencer.pio-slave-port            2                       # Packet count per connected master and slave (bytes)
system.iobus.pkt_count_system.ruby.l0_cntrl3.sequencer.mem-master-port::system.ruby.l0_cntrl2.sequencer.pio-slave-port            2                       # Packet count per connected master and slave (bytes)
system.iobus.pkt_count_system.ruby.l0_cntrl3.sequencer.mem-master-port::system.ruby.l0_cntrl3.sequencer.pio-slave-port         1022                       # Packet count per connected master and slave (bytes)
system.iobus.pkt_count_system.ruby.l0_cntrl3.sequencer.mem-master-port::total         1036                       # Packet count per connected master and slave (bytes)
system.iobus.pkt_count::total                    4308                       # Packet count per connected master and slave (bytes)
system.iobus.pkt_size_system.pc.south_bridge.io_apic.int_master::system.ruby.l0_cntrl0.sequencer.pio-slave-port            4                       # Cumulative packet size per connected master and slave (bytes)
system.iobus.pkt_size_system.pc.south_bridge.io_apic.int_master::system.ruby.l0_cntrl1.sequencer.pio-slave-port            8                       # Cumulative packet size per connected master and slave (bytes)
system.iobus.pkt_size_system.pc.south_bridge.io_apic.int_master::system.ruby.l0_cntrl2.sequencer.pio-slave-port            4                       # Cumulative packet size per connected master and slave (bytes)
system.iobus.pkt_size_system.pc.south_bridge.io_apic.int_master::system.ruby.l0_cntrl3.sequencer.pio-slave-port            4                       # Cumulative packet size per connected master and slave (bytes)
system.iobus.pkt_size_system.pc.south_bridge.io_apic.int_master::total           20                       # Cumulative packet size per connected master and slave (bytes)
system.iobus.pkt_size_system.ruby.l0_cntrl0.sequencer.mem-master-port::system.pc.south_bridge.io_apic.pio           12                       # Cumulative packet size per connected master and slave (bytes)
system.iobus.pkt_size_system.ruby.l0_cntrl0.sequencer.mem-master-port::system.pc.com_1.pio           11                       # Cumulative packet size per connected master and slave (bytes)
system.iobus.pkt_size_system.ruby.l0_cntrl0.sequencer.mem-master-port::system.ruby.l0_cntrl0.sequencer.pio-slave-port         2024                       # Cumulative packet size per connected master and slave (bytes)
system.iobus.pkt_size_system.ruby.l0_cntrl0.sequencer.mem-master-port::system.ruby.l0_cntrl1.sequencer.pio-slave-port            4                       # Cumulative packet size per connected master and slave (bytes)
system.iobus.pkt_size_system.ruby.l0_cntrl0.sequencer.mem-master-port::total         2051                       # Cumulative packet size per connected master and slave (bytes)
system.iobus.pkt_size_system.ruby.l0_cntrl1.sequencer.mem-master-port::system.pc.south_bridge.io_apic.pio           28                       # Cumulative packet size per connected master and slave (bytes)
system.iobus.pkt_size_system.ruby.l0_cntrl1.sequencer.mem-master-port::system.pc.com_1.pio           81                       # Cumulative packet size per connected master and slave (bytes)
system.iobus.pkt_size_system.ruby.l0_cntrl1.sequencer.mem-master-port::system.ruby.l0_cntrl0.sequencer.pio-slave-port            4                       # Cumulative packet size per connected master and slave (bytes)
system.iobus.pkt_size_system.ruby.l0_cntrl1.sequencer.mem-master-port::system.ruby.l0_cntrl1.sequencer.pio-slave-port         2040                       # Cumulative packet size per connected master and slave (bytes)
system.iobus.pkt_size_system.ruby.l0_cntrl1.sequencer.mem-master-port::system.ruby.l0_cntrl2.sequencer.pio-slave-port            4                       # Cumulative packet size per connected master and slave (bytes)
system.iobus.pkt_size_system.ruby.l0_cntrl1.sequencer.mem-master-port::total         2157                       # Cumulative packet size per connected master and slave (bytes)
system.iobus.pkt_size_system.ruby.l0_cntrl2.sequencer.mem-master-port::system.pc.south_bridge.io_apic.pio           16                       # Cumulative packet size per connected master and slave (bytes)
system.iobus.pkt_size_system.ruby.l0_cntrl2.sequencer.mem-master-port::system.ruby.l0_cntrl2.sequencer.pio-slave-port         2020                       # Cumulative packet size per connected master and slave (bytes)
system.iobus.pkt_size_system.ruby.l0_cntrl2.sequencer.mem-master-port::system.ruby.l0_cntrl3.sequencer.pio-slave-port            4                       # Cumulative packet size per connected master and slave (bytes)
system.iobus.pkt_size_system.ruby.l0_cntrl2.sequencer.mem-master-port::total         2040                       # Cumulative packet size per connected master and slave (bytes)
system.iobus.pkt_size_system.ruby.l0_cntrl3.sequencer.mem-master-port::system.pc.south_bridge.io_apic.pio           16                       # Cumulative packet size per connected master and slave (bytes)
system.iobus.pkt_size_system.ruby.l0_cntrl3.sequencer.mem-master-port::system.ruby.l0_cntrl0.sequencer.pio-slave-port            4                       # Cumulative packet size per connected master and slave (bytes)
system.iobus.pkt_size_system.ruby.l0_cntrl3.sequencer.mem-master-port::system.ruby.l0_cntrl1.sequencer.pio-slave-port            4                       # Cumulative packet size per connected master and slave (bytes)
system.iobus.pkt_size_system.ruby.l0_cntrl3.sequencer.mem-master-port::system.ruby.l0_cntrl2.sequencer.pio-slave-port            4                       # Cumulative packet size per connected master and slave (bytes)
system.iobus.pkt_size_system.ruby.l0_cntrl3.sequencer.mem-master-port::system.ruby.l0_cntrl3.sequencer.pio-slave-port         2044                       # Cumulative packet size per connected master and slave (bytes)
system.iobus.pkt_size_system.ruby.l0_cntrl3.sequencer.mem-master-port::total         2072                       # Cumulative packet size per connected master and slave (bytes)
system.iobus.pkt_size::total                     8340                       # Cumulative packet size per connected master and slave (bytes)
system.iobus.reqLayer8.occupancy                31496                       # Layer occupancy (ticks)
system.iobus.reqLayer8.utilization                0.0                       # Layer utilization (%)
system.iobus.reqLayer12.occupancy              121000                       # Layer occupancy (ticks)
system.iobus.reqLayer12.utilization               0.0                       # Layer utilization (%)
system.iobus.reqLayer17.occupancy             1182999                       # Layer occupancy (ticks)
system.iobus.reqLayer17.utilization               0.0                       # Layer utilization (%)
system.iobus.reqLayer18.occupancy             1296211                       # Layer occupancy (ticks)
system.iobus.reqLayer18.utilization               0.0                       # Layer utilization (%)
system.iobus.reqLayer19.occupancy             1165000                       # Layer occupancy (ticks)
system.iobus.reqLayer19.utilization               0.0                       # Layer utilization (%)
system.iobus.reqLayer20.occupancy             1179998                       # Layer occupancy (ticks)
system.iobus.reqLayer20.utilization               0.0                       # Layer utilization (%)
system.iobus.respLayer0.occupancy                6500                       # Layer occupancy (ticks)
system.iobus.respLayer0.utilization               0.0                       # Layer utilization (%)
system.iobus.respLayer2.occupancy              784000                       # Layer occupancy (ticks)
system.iobus.respLayer2.utilization               0.0                       # Layer utilization (%)
system.iobus.respLayer4.occupancy              919500                       # Layer occupancy (ticks)
system.iobus.respLayer4.utilization               0.0                       # Layer utilization (%)
system.iobus.respLayer6.occupancy              766000                       # Layer occupancy (ticks)
system.iobus.respLayer6.utilization               0.0                       # Layer utilization (%)
system.iobus.respLayer8.occupancy              779000                       # Layer occupancy (ticks)
system.iobus.respLayer8.utilization               0.0                       # Layer utilization (%)
system.pc.south_bridge.ide.disks.dma_read_full_pages            0                       # Number of full page size DMA reads (not PRD).
system.pc.south_bridge.ide.disks.dma_read_bytes            0                       # Number of bytes transfered via DMA reads (not PRD).
system.pc.south_bridge.ide.disks.dma_read_txs            0                       # Number of DMA read transactions (not PRD).
system.pc.south_bridge.ide.disks.dma_write_full_pages            0                       # Number of full page size DMA writes.
system.pc.south_bridge.ide.disks.dma_write_bytes            0                       # Number of bytes transfered via DMA writes.
system.pc.south_bridge.ide.disks.dma_write_txs            0                       # Number of DMA write transactions.
system.ruby.clk_domain.clock                      500                       # Clock period in ticks
system.ruby.delayHist::bucket_size                  4                       # delay histogram for all message
system.ruby.delayHist::max_bucket                  39                       # delay histogram for all message
system.ruby.delayHist::samples              188993125                       # delay histogram for all message
system.ruby.delayHist::mean                  0.616063                       # delay histogram for all message
system.ruby.delayHist::stdev                 2.133693                       # delay histogram for all message
system.ruby.delayHist                    |   174449427     92.30%     92.30% |       18042      0.01%     92.31% |    14518908      7.68%    100.00% |        1700      0.00%    100.00% |        5033      0.00%    100.00% |           3      0.00%    100.00% |          12      0.00%    100.00% |           0      0.00%    100.00% |           0      0.00%    100.00% |           0      0.00%    100.00% # delay histogram for all message
system.ruby.delayHist::total                188993125                       # delay histogram for all message
system.ruby.outstanding_req_hist_seqr::bucket_size            1                      
system.ruby.outstanding_req_hist_seqr::max_bucket            9                      
system.ruby.outstanding_req_hist_seqr::samples   1226829955                      
system.ruby.outstanding_req_hist_seqr::mean     1.000000                      
system.ruby.outstanding_req_hist_seqr::gmean     1.000000                      
system.ruby.outstanding_req_hist_seqr::stdev     0.000428                      
system.ruby.outstanding_req_hist_seqr    |           0      0.00%      0.00% |  1226829730    100.00%    100.00% |         225      0.00%    100.00% |           0      0.00%    100.00% |           0      0.00%    100.00% |           0      0.00%    100.00% |           0      0.00%    100.00% |           0      0.00%    100.00% |           0      0.00%    100.00% |           0      0.00%    100.00%
system.ruby.outstanding_req_hist_seqr::total   1226829955                      
system.ruby.latency_hist_seqr::bucket_size          512                      
system.ruby.latency_hist_seqr::max_bucket         5119                      
system.ruby.latency_hist_seqr::samples     1226829955                      
system.ruby.latency_hist_seqr::mean          2.286612                      
system.ruby.latency_hist_seqr::gmean         1.114323                      
system.ruby.latency_hist_seqr::stdev        14.438333                      
system.ruby.latency_hist_seqr            |  1226639419     99.98%     99.98% |      175654      0.01%    100.00% |       12803      0.00%    100.00% |        1922      0.00%    100.00% |         155      0.00%    100.00% |           2      0.00%    100.00% |           0      0.00%    100.00% |           0      0.00%    100.00% |           0      0.00%    100.00% |           0      0.00%    100.00%
system.ruby.latency_hist_seqr::total       1226829955                      
system.ruby.hit_latency_hist_seqr::bucket_size            1                      
system.ruby.hit_latency_hist_seqr::max_bucket            9                      
[...]
system.ruby.L1Cache_Controller.WB_Ack::total     24771676                      
system.ruby.L1Cache_Controller.I.Load    |      130972      0.87%      0.87% |    14550103     96.94%     97.81% |       80824      0.54%     98.35% |      247353      1.65%    100.00%
system.ruby.L1Cache_Controller.I.Load::total     15009252                      
system.ruby.L1Cache_Controller.I.Store   |       28734      0.28%      0.28% |    10091514     98.86%     99.14% |       17409      0.17%     99.31% |       70618      0.69%    100.00%
system.ruby.L1Cache_Controller.I.Store::total     10208275                      
system.ruby.L1Cache_Controller.I.Inv     |        3798     19.15%     19.15% |        9525     48.04%     67.19% |        1842      9.29%     76.48% |        4664     23.52%    100.00%
system.ruby.L1Cache_Controller.I.Inv::total        19829                      
system.ruby.L1Cache_Controller.S.Load    |      126328     11.72%     11.72% |      628753     58.32%     70.03% |       99797      9.26%     79.29% |      223305     20.71%    100.00%
system.ruby.L1Cache_Controller.S.Load::total      1078183                      
system.ruby.L1Cache_Controller.S.Store   |        2638     35.82%     35.82% |        1449     19.68%     55.50% |        1308     17.76%     73.26% |        1969     26.74%    100.00%
system.ruby.L1Cache_Controller.S.Store::total         7364                      
system.ruby.L1Cache_Controller.S.L0_Invalidate_Own |       32695     11.51%     11.51% |      191250     67.30%     78.81% |       20786      7.31%     86.12% |       39434     13.88%    100.00%
system.ruby.L1Cache_Controller.S.L0_Invalidate_Own::total       284165                      
system.ruby.L1Cache_Controller.S.L0_Invalidate_Else |       22669     34.28%     34.28% |         967      1.46%     35.74% |       16524     24.99%     60.72% |       25975     39.28%    100.00%
system.ruby.L1Cache_Controller.S.L0_Invalidate_Else::total        66135                      
system.ruby.L1Cache_Controller.SS.Load   |        3993     26.32%     26.32% |         288      1.90%     28.22% |        9344     61.59%     89.81% |        1546     10.19%    100.00%
system.ruby.L1Cache_Controller.SS.Load::total        15171                      
system.ruby.L1Cache_Controller.SS.Store  |         618     75.27%     75.27% |          10      1.22%     76.49% |          35      4.26%     80.76% |         158     19.24%    100.00%
system.ruby.L1Cache_Controller.SS.Store::total          821                      
system.ruby.L1Cache_Controller.SS.Inv    |       28033     32.50%     32.50% |        2006      2.33%     34.82% |       28022     32.49%     67.31% |       28198     32.69%    100.00%
system.ruby.L1Cache_Controller.SS.Inv::total        86259                      
system.ruby.L1Cache_Controller.SS.L1_Replacement |       33669     11.69%     11.69% |      192338     66.76%     78.44% |       21630      7.51%     85.95% |       40478     14.05%    100.00%
system.ruby.L1Cache_Controller.SS.L1_Replacement::total       288115                      
system.ruby.L1Cache_Controller.E.WriteBack |       68661      0.48%      0.48% |    14162404     98.05%     98.53% |       39305      0.27%     98.80% |      173555      1.20%    100.00%
system.ruby.L1Cache_Controller.E.WriteBack::total     14443925                      
system.ruby.L1Cache_Controller.E.L0_Invalidate_Own |        3470      1.72%      1.72% |      193948     96.19%     97.91% |         652      0.32%     98.23% |        3570      1.77%    100.00%
system.ruby.L1Cache_Controller.E.L0_Invalidate_Own::total       201640                      
system.ruby.L1Cache_Controller.E.L0_Invalidate_Else |        4863     23.08%     23.08% |         266      1.26%     24.34% |       11753     55.77%     80.11% |        4192     19.89%    100.00%
system.ruby.L1Cache_Controller.E.L0_Invalidate_Else::total        21074                      
system.ruby.L1Cache_Controller.EE.Inv    |        2360     24.28%     24.28% |          48      0.49%     24.77% |        4370     44.96%     69.73% |        2942     30.27%    100.00%
system.ruby.L1Cache_Controller.EE.Inv::total         9720                      
system.ruby.L1Cache_Controller.EE.L1_Replacement |        3401      1.69%      1.69% |      193527     96.28%     97.97% |         611      0.30%     98.28% |        3466      1.72%    100.00%
system.ruby.L1Cache_Controller.EE.L1_Replacement::total       201005                      
system.ruby.L1Cache_Controller.EE.Fwd_GETX |           7     33.33%     33.33% |           1      4.76%     38.10% |           1      4.76%     42.86% |          12     57.14%    100.00%
system.ruby.L1Cache_Controller.EE.Fwd_GETX::total           21                      
system.ruby.L1Cache_Controller.EE.Fwd_GETS |        2189     22.96%     22.96% |         190      1.99%     24.95% |        6662     69.88%     94.83% |         493      5.17%    100.00%
system.ruby.L1Cache_Controller.EE.Fwd_GETS::total         9534                      
system.ruby.L1Cache_Controller.M.WriteBack |      183294      0.51%      0.51% |    35096110     98.00%     98.51% |       80886      0.23%     98.74% |      451940      1.26%    100.00%
system.ruby.L1Cache_Controller.M.WriteBack::total     35812230                      
system.ruby.L1Cache_Controller.M.L0_Invalidate_Own |        4145      6.45%      6.45% |       55417     86.17%     92.61% |        1212      1.88%     94.50% |        3538      5.50%    100.00%
system.ruby.L1Cache_Controller.M.L0_Invalidate_Own::total        64312                      
system.ruby.L1Cache_Controller.M.L0_Invalidate_Else |        9266     36.14%     36.14% |         605      2.36%     38.50% |        7783     30.36%     68.86% |        7982     31.14%    100.00%
system.ruby.L1Cache_Controller.M.L0_Invalidate_Else::total        25636                      
system.ruby.L1Cache_Controller.MM.Load   |      132776      0.95%      0.95% |    13549225     96.63%     97.57% |       52652      0.38%     97.95% |      287800      2.05%    100.00%
system.ruby.L1Cache_Controller.MM.Load::total     14022453                      
system.ruby.L1Cache_Controller.MM.Store  |       31967      0.27%      0.27% |    11509915     98.69%     98.96% |       18479      0.16%     99.12% |      102905      0.88%    100.00%
system.ruby.L1Cache_Controller.MM.Store::total     11663266                      
system.ruby.L1Cache_Controller.MM.Inv    |       23420     39.68%     39.68% |        2908      4.93%     44.61% |       16160     27.38%     71.99% |       16530     28.01%    100.00%
system.ruby.L1Cache_Controller.MM.Inv::total        59018                      
system.ruby.L1Cache_Controller.MM.L1_Replacement |       67525      0.27%      0.27% |    24250696     98.70%     98.97% |       26717      0.11%     99.08% |      225733      0.92%    100.00%
system.ruby.L1Cache_Controller.MM.L1_Replacement::total     24570671                      
system.ruby.L1Cache_Controller.MM.Fwd_GETX |        1054     34.30%     34.30% |         370     12.04%     46.34% |         887     28.86%     75.20% |         762     24.80%    100.00%
system.ruby.L1Cache_Controller.MM.Fwd_GETX::total         3073                      
system.ruby.L1Cache_Controller.MM.Fwd_GETS |        8497     28.10%     28.10% |        2197      7.26%     35.36% |       14999     49.59%     84.96% |        4550     15.04%    100.00%
system.ruby.L1Cache_Controller.MM.Fwd_GETS::total        30243                      
system.ruby.L1Cache_Controller.IS.Data_Exclusive |       77013      0.53%      0.53% |    14356611     97.89%     98.41% |       51681      0.35%     98.76% |      181296      1.24%    100.00%
system.ruby.L1Cache_Controller.IS.Data_Exclusive::total     14666601                      
system.ruby.L1Cache_Controller.IS.DataS_fromL1 |       22180     55.76%     55.76% |        2457      6.18%     61.94% |        3994     10.04%     71.98% |       11146     28.02%    100.00%
system.ruby.L1Cache_Controller.IS.DataS_fromL1::total        39777                      
system.ruby.L1Cache_Controller.IS.Data_all_Acks |       31779     10.49%     10.49% |      191035     63.07%     73.57% |       25149      8.30%     81.87% |       54911     18.13%    100.00%
system.ruby.L1Cache_Controller.IS.Data_all_Acks::total       302874                      
system.ruby.L1Cache_Controller.IM.Data   |         942     45.75%     45.75% |         541     26.27%     72.03% |          83      4.03%     76.06% |         493     23.94%    100.00%
system.ruby.L1Cache_Controller.IM.Data::total         2059                      
system.ruby.L1Cache_Controller.IM.Data_all_Acks |       27793      0.27%      0.27% |    10090974     98.87%     99.14% |       17327      0.17%     99.31% |       70125      0.69%    100.00%
system.ruby.L1Cache_Controller.IM.Data_all_Acks::total     10206219                      
system.ruby.L1Cache_Controller.SM.Inv    |           1     33.33%     33.33% |           1     33.33%     66.67% |           1     33.33%    100.00% |           0      0.00%    100.00%
system.ruby.L1Cache_Controller.SM.Inv::total            3                      
system.ruby.L1Cache_Controller.SM.Ack    |        8707     50.48%     50.48% |        3679     21.33%     71.80% |        1720      9.97%     81.77% |        3144     18.23%    100.00%
system.ruby.L1Cache_Controller.SM.Ack::total        17250                      
system.ruby.L1Cache_Controller.SM.Ack_all |        4197     40.98%     40.98% |        1999     19.52%     60.50% |        1425     13.91%     74.42% |        2620     25.58%    100.00%
system.ruby.L1Cache_Controller.SM.Ack_all::total        10241                      
system.ruby.L1Cache_Controller.M_I.Inv   |           0      0.00%      0.00% |           1    100.00%    100.00% |           0      0.00%    100.00% |           0      0.00%    100.00%
system.ruby.L1Cache_Controller.M_I.Inv::total            1                      
system.ruby.L1Cache_Controller.M_I.WB_Ack |       70926      0.29%      0.29% |    24444222     98.68%     98.96% |       27328      0.11%     99.07% |      229199      0.93%    100.00%
system.ruby.L1Cache_Controller.M_I.WB_Ack::total     24771675                      
system.ruby.L1Cache_Controller.SINK_WB_ACK.WB_Ack |           0      0.00%      0.00% |           1    100.00%    100.00% |           0      0.00%    100.00% |           0      0.00%    100.00%
system.ruby.L1Cache_Controller.SINK_WB_ACK.WB_Ack::total            1                      
system.ruby.L1Cache_Controller.S_IL0.L0_Invalidate_Own |       32695     11.51%     11.51% |      191250     67.30%     78.81% |       20786      7.31%     86.12% |       39434     13.88%    100.00%
system.ruby.L1Cache_Controller.S_IL0.L0_Invalidate_Own::total       284165                      
system.ruby.L1Cache_Controller.S_IL0.L0_Invalidate_Else |       22669     34.28%     34.28% |         967      1.46%     35.74% |       16524     24.99%     60.72% |       25975     39.28%    100.00%
system.ruby.L1Cache_Controller.S_IL0.L0_Invalidate_Else::total        66135                      
system.ruby.L1Cache_Controller.S_IL0.L0_Ack |       55364     15.80%     15.80% |      192217     54.87%     70.68% |       37310     10.65%     81.33% |       65409     18.67%    100.00%
system.ruby.L1Cache_Controller.S_IL0.L0_Ack::total       350300                      
system.ruby.L1Cache_Controller.E_IL0.WriteBack |           0      0.00%      0.00% |           0      0.00%      0.00% |           1    100.00%    100.00% |           0      0.00%    100.00%
system.ruby.L1Cache_Controller.E_IL0.WriteBack::total            1                      
system.ruby.L1Cache_Controller.E_IL0.L0_DataAck |         376     15.45%     15.45% |         448     18.41%     33.87% |         760     31.24%     65.10% |         849     34.90%    100.00%
system.ruby.L1Cache_Controller.E_IL0.L0_DataAck::total         2433                      
system.ruby.L1Cache_Controller.E_IL0.L0_Invalidate_Own |        3470      1.72%      1.72% |      193948     96.19%     97.91% |         652      0.32%     98.23% |        3570      1.77%    100.00%
system.ruby.L1Cache_Controller.E_IL0.L0_Invalidate_Own::total       201640                      
system.ruby.L1Cache_Controller.E_IL0.L0_Invalidate_Else |        4863     23.08%     23.08% |         266      1.26%     24.34% |       11753     55.77%     80.11% |        4192     19.89%    100.00%
system.ruby.L1Cache_Controller.E_IL0.L0_Invalidate_Else::total        21074                      
system.ruby.L1Cache_Controller.E_IL0.L0_Ack |        7957      3.61%      3.61% |      193766     87.96%     91.58% |       11644      5.29%     96.86% |        6913      3.14%    100.00%
system.ruby.L1Cache_Controller.E_IL0.L0_Ack::total       220280                      
system.ruby.L1Cache_Controller.M_IL0.L0_DataAck |        8537     28.39%     28.39% |        7039     23.40%     51.79% |        6576     21.87%     73.66% |        7923     26.34%    100.00%
system.ruby.L1Cache_Controller.M_IL0.L0_DataAck::total        30075                      
system.ruby.L1Cache_Controller.M_IL0.L0_Invalidate_Own |        4145      6.45%      6.45% |       55417     86.17%     92.61% |        1212      1.88%     94.50% |        3538      5.50%    100.00%
system.ruby.L1Cache_Controller.M_IL0.L0_Invalidate_Own::total        64312                      
system.ruby.L1Cache_Controller.M_IL0.L0_Invalidate_Else |        9266     36.14%     36.14% |         605      2.36%     38.50% |        7783     30.36%     68.86% |        7982     31.14%    100.00%
system.ruby.L1Cache_Controller.M_IL0.L0_Invalidate_Else::total        25636                      
system.ruby.L1Cache_Controller.M_IL0.L0_Ack |        4874      8.14%      8.14% |       48983     81.81%     89.95% |        2419      4.04%     93.99% |        3597      6.01%    100.00%
system.ruby.L1Cache_Controller.M_IL0.L0_Ack::total        59873                      
system.ruby.L1Cache_Controller.MM_IL0.Fwd_GETS |           0      0.00%      0.00% |           0      0.00%      0.00% |           1    100.00%    100.00% |           0      0.00%    100.00%
system.ruby.L1Cache_Controller.MM_IL0.Fwd_GETS::total            1                      
system.ruby.L1Cache_Controller.MM_IL0.L0_Ack |           0      0.00%      0.00% |           0      0.00%      0.00% |           1    100.00%    100.00% |           0      0.00%    100.00%
system.ruby.L1Cache_Controller.MM_IL0.L0_Ack::total            1                      
system.ruby.L2Cache_Controller.L1_GETS       15009413      0.00%      0.00%
system.ruby.L2Cache_Controller.L1_GETX       10208282      0.00%      0.00%
system.ruby.L2Cache_Controller.L1_UPGRADE         8185      0.00%      0.00%
system.ruby.L2Cache_Controller.L1_PUTX       24771675      0.00%      0.00%
system.ruby.L2Cache_Controller.L1_PUTX_old            2      0.00%      0.00%
system.ruby.L2Cache_Controller.L2_Replacement      3516644      0.00%      0.00%
system.ruby.L2Cache_Controller.L2_Replacement_clean      3289734      0.00%      0.00%
system.ruby.L2Cache_Controller.Mem_Data       6816070      0.00%      0.00%
system.ruby.L2Cache_Controller.Mem_Ack        6806380      0.00%      0.00%
system.ruby.L2Cache_Controller.WB_Data          40537      0.00%      0.00%
system.ruby.L2Cache_Controller.WB_Data_clean        58259      0.00%      0.00%
system.ruby.L2Cache_Controller.Ack              57495      0.00%      0.00%
system.ruby.L2Cache_Controller.Ack_all          39007      0.00%      0.00%
system.ruby.L2Cache_Controller.Unblock          39777      0.00%      0.00%
system.ruby.L2Cache_Controller.Exclusive_Unblock     24883061      0.00%      0.00%
system.ruby.L2Cache_Controller.MEM_Inv              4      0.00%      0.00%
system.ruby.L2Cache_Controller.NP.L1_GETS      3328885      0.00%      0.00%
system.ruby.L2Cache_Controller.NP.L1_GETX      3487185      0.00%      0.00%
system.ruby.L2Cache_Controller.NP.L1_PUTX_old            1      0.00%      0.00%
system.ruby.L2Cache_Controller.SS.L1_GETS       302782      0.00%      0.00%
system.ruby.L2Cache_Controller.SS.L1_GETX         2059      0.00%      0.00%
system.ruby.L2Cache_Controller.SS.L1_UPGRADE         8182      0.00%      0.00%
system.ruby.L2Cache_Controller.SS.L2_Replacement          898      0.00%      0.00%
system.ruby.L2Cache_Controller.SS.L2_Replacement_clean        28389      0.00%      0.00%
system.ruby.L2Cache_Controller.M.L1_GETS     11337762      0.00%      0.00%
system.ruby.L2Cache_Controller.M.L1_GETX      6715940      0.00%      0.00%
system.ruby.L2Cache_Controller.M.L2_Replacement      3512842      0.00%      0.00%
system.ruby.L2Cache_Controller.M.L2_Replacement_clean      3195512      0.00%      0.00%
system.ruby.L2Cache_Controller.MT.L1_GETS        39777      0.00%      0.00%
system.ruby.L2Cache_Controller.MT.L1_GETX         3094      0.00%      0.00%
system.ruby.L2Cache_Controller.MT.L1_PUTX     24771675      0.00%      0.00%
system.ruby.L2Cache_Controller.MT.L2_Replacement         2904      0.00%      0.00%
system.ruby.L2Cache_Controller.MT.L2_Replacement_clean        65833      0.00%      0.00%
system.ruby.L2Cache_Controller.MT.MEM_Inv            2      0.00%      0.00%
system.ruby.L2Cache_Controller.M_I.L1_GETS            3      0.00%      0.00%
system.ruby.L2Cache_Controller.M_I.L1_GETX            2      0.00%      0.00%
system.ruby.L2Cache_Controller.M_I.Mem_Ack      6806380      0.00%      0.00%
system.ruby.L2Cache_Controller.MT_I.WB_Data         2124      0.00%      0.00%
system.ruby.L2Cache_Controller.MT_I.WB_Data_clean          540      0.00%      0.00%
system.ruby.L2Cache_Controller.MT_I.Ack_all          242      0.00%      0.00%
system.ruby.L2Cache_Controller.MT_I.MEM_Inv            2      0.00%      0.00%
system.ruby.L2Cache_Controller.MCT_I.L1_PUTX_old            1      0.00%      0.00%
system.ruby.L2Cache_Controller.MCT_I.WB_Data        31663      0.00%      0.00%
system.ruby.L2Cache_Controller.MCT_I.WB_Data_clean        24692      0.00%      0.00%
system.ruby.L2Cache_Controller.MCT_I.Ack_all         9478      0.00%      0.00%
system.ruby.L2Cache_Controller.I_I.Ack          56327      0.00%      0.00%
system.ruby.L2Cache_Controller.I_I.Ack_all        28389      0.00%      0.00%
system.ruby.L2Cache_Controller.S_I.Ack           1168      0.00%      0.00%
system.ruby.L2Cache_Controller.S_I.Ack_all          898      0.00%      0.00%
system.ruby.L2Cache_Controller.ISS.L1_GETS           46      0.00%      0.00%
system.ruby.L2Cache_Controller.ISS.Mem_Data      3328839      0.00%      0.00%
system.ruby.L2Cache_Controller.IS.Mem_Data           46      0.00%      0.00%
system.ruby.L2Cache_Controller.IM.Mem_Data      3487185      0.00%      0.00%
system.ruby.L2Cache_Controller.SS_MB.L1_GETS           52      0.00%      0.00%
system.ruby.L2Cache_Controller.SS_MB.L1_GETX            1      0.00%      0.00%
system.ruby.L2Cache_Controller.SS_MB.L1_UPGRADE            3      0.00%      0.00%
system.ruby.L2Cache_Controller.SS_MB.Exclusive_Unblock        10241      0.00%      0.00%
system.ruby.L2Cache_Controller.MT_MB.L1_GETS          100      0.00%      0.00%
system.ruby.L2Cache_Controller.MT_MB.L1_GETX            1      0.00%      0.00%
system.ruby.L2Cache_Controller.MT_MB.Exclusive_Unblock     24872820      0.00%      0.00%
system.ruby.L2Cache_Controller.MT_IIB.L1_GETS            6      0.00%      0.00%
system.ruby.L2Cache_Controller.MT_IIB.WB_Data         6735      0.00%      0.00%
system.ruby.L2Cache_Controller.MT_IIB.WB_Data_clean        32935      0.00%      0.00%
system.ruby.L2Cache_Controller.MT_IIB.Unblock          107      0.00%      0.00%
system.ruby.L2Cache_Controller.MT_IB.WB_Data           15      0.00%      0.00%
system.ruby.L2Cache_Controller.MT_IB.WB_Data_clean           92      0.00%      0.00%
system.ruby.L2Cache_Controller.MT_SB.Unblock        39670      0.00%      0.00%

---------- End Simulation Statistics   ----------
