Redirecting stdout to /root/anthony/lelec2990-sim/splash2x.radix/X86_MESI_Three_Level/l2_assoc/6way/stdout.txt
Redirecting stderr to /root/anthony/lelec2990-sim/splash2x.radix/X86_MESI_Three_Level/l2_assoc/6way/stderr.txt
gem5 Simulator System.  http://gem5.org
gem5 is copyrighted software; use the --copyright option for details.

gem5 compiled Jun  1 2016 12:09:12
gem5 started Jun  3 2016 04:58:48
gem5 executing on tsurumi.info.ucl.ac.be, pid 1435499
command line: /root/anthony/gem5/build/X86_MESI_Three_Level/gem5.opt --outdir=/root/anthony/lelec2990-sim/splash2x.radix/X86_MESI_Three_Level/l2_assoc/6way -e --stderr-file=/root/anthony/lelec2990-sim/splash2x.radix/X86_MESI_Three_Level/l2_assoc/6way/stderr.txt -r --stdout-file=/root/anthony/lelec2990-sim/splash2x.radix/X86_MESI_Three_Level/l2_assoc/6way/stdout.txt /root/anthony/gem5/configs/example/fs.py --mem-size 1GB --script /root/anthony/gem5/sim_script --num-cpus 4 --ruby -r 1 --restore-with-cpu timing --l2_assoc 6

Global frequency set at 1000000000000 ticks per second
info: kernel located at: /root/anthony/debian/binaries/vmlinux
      0: rtc: Real-time clock set to Sun Jan  1 00:00:00 2012
**** REAL SIMULATION ****
info: Entering event queue @ 52336924182000.  Starting simulation...
Exiting @ tick 54373326862001 because m5_exit instruction encountered
