
---------- Begin Simulation Statistics ----------
sim_seconds                                  0.462852                       # Number of seconds simulated
sim_ticks                                462851719500                       # Number of ticks simulated
final_tick                               52369992422501                       # Number of ticks from beginning of simulation (restored from checkpoints and never reset)
sim_freq                                 1000000000000                       # Frequency of simulated ticks
host_inst_rate                                 138218                       # Simulator instruction rate (inst/s)
host_op_rate                                   249447                       # Simulator op (including micro ops) rate (op/s)
host_tick_rate                              237985431                       # Simulator tick rate (ticks/s)
host_mem_usage                                1818160                       # Number of bytes of host memory used
host_seconds                                  1944.87                       # Real time elapsed on the host
sim_insts                                   268815646                       # Number of instructions simulated
sim_ops                                     485142397                       # Number of ops (including micro ops) simulated
system.voltage_domain.voltage                       1                       # Voltage in Volts
system.clk_domain.clock                          1000                       # Clock period in ticks
system.mem_ctrls0.bytes_read::ruby.dir_cntrl0       118592                       # Number of bytes read from this memory
system.mem_ctrls0.bytes_read::total            118592                       # Number of bytes read from this memory
system.mem_ctrls0.bytes_written::ruby.dir_cntrl0        42816                       # Number of bytes written to this memory
system.mem_ctrls0.bytes_written::total          42816                       # Number of bytes written to this memory
system.mem_ctrls0.num_reads::ruby.dir_cntrl0         1853                       # Number of read requests responded to by this memory
system.mem_ctrls0.num_reads::total               1853                       # Number of read requests responded to by this memory
system.mem_ctrls0.num_writes::ruby.dir_cntrl0          669                       # Number of write requests responded to by this memory
system.mem_ctrls0.num_writes::total               669                       # Number of write requests responded to by this memory
system.mem_ctrls0.bw_read::ruby.dir_cntrl0       256220                       # Total read bandwidth from this memory (bytes/s)
system.mem_ctrls0.bw_read::total               256220                       # Total read bandwidth from this memory (bytes/s)
system.mem_ctrls0.bw_write::ruby.dir_cntrl0        92505                       # Write bandwidth from this memory (bytes/s)
system.mem_ctrls0.bw_write::total               92505                       # Write bandwidth from this memory (bytes/s)
system.mem_ctrls0.bw_total::ruby.dir_cntrl0       348725                       # Total bandwidth to/from this memory (bytes/s)
system.mem_ctrls0.bw_total::total              348725                       # Total bandwidth to/from this memory (bytes/s)
system.mem_ctrls0.readReqs                       1853                       # Number of read requests accepted
system.mem_ctrls0.writeReqs                       669                       # Number of write requests accepted
system.mem_ctrls0.readBursts                     1853                       # Number of DRAM read bursts, including those serviced by the write queue
system.mem_ctrls0.writeBursts                     669                       # Number of DRAM write bursts, including those merged in the write queue
system.mem_ctrls0.bytesReadDRAM                117056                       # Total number of bytes read from DRAM
system.mem_ctrls0.bytesReadWrQ                   1536                       # Total number of bytes read from write queue
system.mem_ctrls0.bytesWritten                  41408                       # Total number of bytes written to DRAM
system.mem_ctrls0.bytesReadSys                 118592                       # Total read bytes from the system interface side
system.mem_ctrls0.bytesWrittenSys               42816                       # Total written bytes from the system interface side
system.mem_ctrls0.servicedByWrQ                    24                       # Number of DRAM read bursts serviced by the write queue
system.mem_ctrls0.mergedWrBursts                    0                       # Number of DRAM write bursts merged with an existing one
system.mem_ctrls0.neitherReadNorWriteReqs            0                       # Number of requests that are neither read nor write
system.mem_ctrls0.perBankRdBursts::0               78                       # Per bank write bursts
system.mem_ctrls0.perBankRdBursts::1               56                       # Per bank write bursts
system.mem_ctrls0.perBankRdBursts::2              104                       # Per bank write bursts
system.mem_ctrls0.perBankRdBursts::3              114                       # Per bank write bursts
system.mem_ctrls0.perBankRdBursts::4               75                       # Per bank write bursts
system.mem_ctrls0.perBankRdBursts::5               87                       # Per bank write bursts
system.mem_ctrls0.perBankRdBursts::6               63                       # Per bank write bursts
system.mem_ctrls0.perBankRdBursts::7              101                       # Per bank write bursts
system.mem_ctrls0.perBankRdBursts::8               68                       # Per bank write bursts
system.mem_ctrls0.perBankRdBursts::9              141                       # Per bank write bursts
system.mem_ctrls0.perBankRdBursts::10              72                       # Per bank write bursts
system.mem_ctrls0.perBankRdBursts::11              40                       # Per bank write bursts
system.mem_ctrls0.perBankRdBursts::12             168                       # Per bank write bursts
system.mem_ctrls0.perBankRdBursts::13             244                       # Per bank write bursts
system.mem_ctrls0.perBankRdBursts::14             207                       # Per bank write bursts
system.mem_ctrls0.perBankRdBursts::15             211                       # Per bank write bursts
system.mem_ctrls0.perBankWrBursts::0               99                       # Per bank write bursts
system.mem_ctrls0.perBankWrBursts::1              132                       # Per bank write bursts
system.mem_ctrls0.perBankWrBursts::2               22                       # Per bank write bursts
system.mem_ctrls0.perBankWrBursts::3               16                       # Per bank write bursts
system.mem_ctrls0.perBankWrBursts::4               12                       # Per bank write bursts
system.mem_ctrls0.perBankWrBursts::5               13                       # Per bank write bursts
system.mem_ctrls0.perBankWrBursts::6              128                       # Per bank write bursts
system.mem_ctrls0.perBankWrBursts::7               30                       # Per bank write bursts
system.mem_ctrls0.perBankWrBursts::8               21                       # Per bank write bursts
system.mem_ctrls0.perBankWrBursts::9               18                       # Per bank write bursts
system.mem_ctrls0.perBankWrBursts::10               6                       # Per bank write bursts
system.mem_ctrls0.perBankWrBursts::11               0                       # Per bank write bursts
system.mem_ctrls0.perBankWrBursts::12              38                       # Per bank write bursts
system.mem_ctrls0.perBankWrBursts::13              20                       # Per bank write bursts
system.mem_ctrls0.perBankWrBursts::14              37                       # Per bank write bursts
system.mem_ctrls0.perBankWrBursts::15              55                       # Per bank write bursts
system.mem_ctrls0.numRdRetry                        0                       # Number of times read queue was full causing retry
system.mem_ctrls0.numWrRetry                        0                       # Number of times write queue was full causing retry
system.mem_ctrls0.totGap                 462843914500                       # Total gap between requests
system.mem_ctrls0.readPktSize::0                    0                       # Read request sizes (log2)
system.mem_ctrls0.readPktSize::1                    0                       # Read request sizes (log2)
system.mem_ctrls0.readPktSize::2                    0                       # Read request sizes (log2)
system.mem_ctrls0.readPktSize::3                    0                       # Read request sizes (log2)
system.mem_ctrls0.readPktSize::4                    0                       # Read request sizes (log2)
system.mem_ctrls0.readPktSize::5                    0                       # Read request sizes (log2)
system.mem_ctrls0.readPktSize::6                 1853                       # Read request sizes (log2)
system.mem_ctrls0.writePktSize::0                   0                       # Write request sizes (log2)
system.mem_ctrls0.writePktSize::1                   0                       # Write request sizes (log2)
system.mem_ctrls0.writePktSize::2                   0                       # Write request sizes (log2)
system.mem_ctrls0.writePktSize::3                   0                       # Write request sizes (log2)
system.mem_ctrls0.writePktSize::4                   0                       # Write request sizes (log2)
system.mem_ctrls0.writePktSize::5                   0                       # Write request sizes (log2)
system.mem_ctrls0.writePktSize::6                 669                       # Write request sizes (log2)
system.mem_ctrls0.rdQLenPdf::0                   1820                       # What read queue length does an incoming req see
system.mem_ctrls0.rdQLenPdf::1                      9                       # What read queue length does an incoming req see
system.mem_ctrls0.rdQLenPdf::2                      0                       # What read queue length does an incoming req see
system.mem_ctrls0.rdQLenPdf::3                      0                       # What read queue length does an incoming req see
system.mem_ctrls0.rdQLenPdf::4                      0                       # What read queue length does an incoming req see
system.mem_ctrls0.rdQLenPdf::5                      0                       # What read queue length does an incoming req see
system.mem_ctrls0.rdQLenPdf::6                      0                       # What read queue length does an incoming req see
system.mem_ctrls0.rdQLenPdf::7                      0                       # What read queue length does an incoming req see
system.mem_ctrls0.rdQLenPdf::8                      0                       # What read queue length does an incoming req see
system.mem_ctrls0.rdQLenPdf::9                      0                       # What read queue length does an incoming req see
system.mem_ctrls0.rdQLenPdf::10                     0                       # What read queue length does an incoming req see
system.mem_ctrls0.rdQLenPdf::11                     0                       # What read queue length does an incoming req see
system.mem_ctrls0.rdQLenPdf::12                     0                       # What read queue length does an incoming req see
system.mem_ctrls0.rdQLenPdf::13                     0                       # What read queue length does an incoming req see
system.mem_ctrls0.rdQLenPdf::14                     0                       # What read queue length does an incoming req see
system.mem_ctrls0.rdQLenPdf::15                     0                       # What read queue length does an incoming req see
system.mem_ctrls0.rdQLenPdf::16                     0                       # What read queue length does an incoming req see
system.mem_ctrls0.rdQLenPdf::17                     0                       # What read queue length does an incoming req see
system.mem_ctrls0.rdQLenPdf::18                     0                       # What read queue length does an incoming req see
system.mem_ctrls0.rdQLenPdf::19                     0                       # What read queue length does an incoming req see
system.mem_ctrls0.rdQLenPdf::20                     0                       # What read queue length does an incoming req see
system.mem_ctrls0.rdQLenPdf::21                     0                       # What read queue length does an incoming req see
system.mem_ctrls0.rdQLenPdf::22                     0                       # What read queue length does an incoming req see
system.mem_ctrls0.rdQLenPdf::23                     0                       # What read queue length does an incoming req see
system.mem_ctrls0.rdQLenPdf::24                     0                       # What read queue length does an incoming req see
system.mem_ctrls0.rdQLenPdf::25                     0                       # What read queue length does an incoming req see
system.mem_ctrls0.rdQLenPdf::26                     0                       # What read queue length does an incoming req see
system.mem_ctrls0.rdQLenPdf::27                     0                       # What read queue length does an incoming req see
system.mem_ctrls0.rdQLenPdf::28                     0                       # What read queue length does an incoming req see
system.mem_ctrls0.rdQLenPdf::29                     0                       # What read queue length does an incoming req see
system.mem_ctrls0.rdQLenPdf::30                     0                       # What read queue length does an incoming req see
system.mem_ctrls0.rdQLenPdf::31                     0                       # What read queue length does an incoming req see
system.mem_ctrls0.wrQLenPdf::0                      0                       # What write queue length does an incoming req see
system.mem_ctrls0.wrQLenPdf::1                      0                       # What write queue length does an incoming req see
system.mem_ctrls0.wrQLenPdf::2                      0                       # What write queue length does an incoming req see
system.mem_ctrls0.wrQLenPdf::3                      0                       # What write queue length does an incoming req see
system.mem_ctrls0.wrQLenPdf::4                      0                       # What write queue length does an incoming req see
system.mem_ctrls0.wrQLenPdf::5                      0                       # What write queue length does an incoming req see
system.mem_ctrls0.wrQLenPdf::6                      0                       # What write queue length does an incoming req see
system.mem_ctrls0.wrQLenPdf::7                      0                       # What write queue length does an incoming req see
system.mem_ctrls0.wrQLenPdf::8                      1                       # What write queue length does an incoming req see
system.mem_ctrls0.wrQLenPdf::9                      1                       # What write queue length does an incoming req see
system.mem_ctrls0.wrQLenPdf::10                     1                       # What write queue length does an incoming req see
system.mem_ctrls0.wrQLenPdf::11                     1                       # What write queue length does an incoming req see
system.mem_ctrls0.wrQLenPdf::12                     1                       # What write queue length does an incoming req see
system.mem_ctrls0.wrQLenPdf::13                     1                       # What write queue length does an incoming req see
system.mem_ctrls0.wrQLenPdf::14                     1                       # What write queue length does an incoming req see
system.mem_ctrls0.wrQLenPdf::15                    31                       # What write queue length does an incoming req see
system.mem_ctrls0.wrQLenPdf::16                    32                       # What write queue length does an incoming req see
system.mem_ctrls0.wrQLenPdf::17                    39                       # What write queue length does an incoming req see
system.mem_ctrls0.wrQLenPdf::18                    38                       # What write queue length does an incoming req see
system.mem_ctrls0.wrQLenPdf::19                    38                       # What write queue length does an incoming req see
system.mem_ctrls0.wrQLenPdf::20                    37                       # What write queue length does an incoming req see
system.mem_ctrls0.wrQLenPdf::21                    40                       # What write queue length does an incoming req see
system.mem_ctrls0.wrQLenPdf::22                    37                       # What write queue length does an incoming req see
system.mem_ctrls0.wrQLenPdf::23                    37                       # What write queue length does an incoming req see
system.mem_ctrls0.wrQLenPdf::24                    37                       # What write queue length does an incoming req see
system.mem_ctrls0.wrQLenPdf::25                    37                       # What write queue length does an incoming req see
system.mem_ctrls0.wrQLenPdf::26                    37                       # What write queue length does an incoming req see
system.mem_ctrls0.wrQLenPdf::27                    37                       # What write queue length does an incoming req see
system.mem_ctrls0.wrQLenPdf::28                    37                       # What write queue length does an incoming req see
system.mem_ctrls0.wrQLenPdf::29                    37                       # What write queue length does an incoming req see
system.mem_ctrls0.wrQLenPdf::30                    36                       # What write queue length does an incoming req see
system.mem_ctrls0.wrQLenPdf::31                    36                       # What write queue length does an incoming req see
system.mem_ctrls0.wrQLenPdf::32                    36                       # What write queue length does an incoming req see
system.mem_ctrls0.wrQLenPdf::33                     1                       # What write queue length does an incoming req see
system.mem_ctrls0.wrQLenPdf::34                     1                       # What write queue length does an incoming req see
system.mem_ctrls0.wrQLenPdf::35                     1                       # What write queue length does an incoming req see
system.mem_ctrls0.wrQLenPdf::36                     0                       # What write queue length does an incoming req see
system.mem_ctrls0.wrQLenPdf::37                     0                       # What write queue length does an incoming req see
system.mem_ctrls0.wrQLenPdf::38                     0                       # What write queue length does an incoming req see
system.mem_ctrls0.wrQLenPdf::39                     0                       # What write queue length does an incoming req see
system.mem_ctrls0.wrQLenPdf::40                     0                       # What write queue length does an incoming req see
system.mem_ctrls0.wrQLenPdf::41                     0                       # What write queue length does an incoming req see
system.mem_ctrls0.wrQLenPdf::42                     0                       # What write queue length does an incoming req see
system.mem_ctrls0.wrQLenPdf::43                     0                       # What write queue length does an incoming req see
system.mem_ctrls0.wrQLenPdf::44                     0                       # What write queue length does an incoming req see
system.mem_ctrls0.wrQLenPdf::45                     0                       # What write queue length does an incoming req see
system.mem_ctrls0.wrQLenPdf::46                     0                       # What write queue length does an incoming req see
system.mem_ctrls0.wrQLenPdf::47                     0                       # What write queue length does an incoming req see
system.mem_ctrls0.wrQLenPdf::48                     0                       # What write queue length does an incoming req see
system.mem_ctrls0.wrQLenPdf::49                     0                       # What write queue length does an incoming req see
system.mem_ctrls0.wrQLenPdf::50                     0                       # What write queue length does an incoming req see
system.mem_ctrls0.wrQLenPdf::51                     0                       # What write queue length does an incoming req see
system.mem_ctrls0.wrQLenPdf::52                     0                       # What write queue length does an incoming req see
system.mem_ctrls0.wrQLenPdf::53                     0                       # What write queue length does an incoming req see
system.mem_ctrls0.wrQLenPdf::54                     0                       # What write queue length does an incoming req see
system.mem_ctrls0.wrQLenPdf::55                     0                       # What write queue length does an incoming req see
system.mem_ctrls0.wrQLenPdf::56                     0                       # What write queue length does an incoming req see
system.mem_ctrls0.wrQLenPdf::57                     0                       # What write queue length does an incoming req see
system.mem_ctrls0.wrQLenPdf::58                     0                       # What write queue length does an incoming req see
system.mem_ctrls0.wrQLenPdf::59                     0                       # What write queue length does an incoming req see
system.mem_ctrls0.wrQLenPdf::60                     0                       # What write queue length does an incoming req see
system.mem_ctrls0.wrQLenPdf::61                     0                       # What write queue length does an incoming req see
system.mem_ctrls0.wrQLenPdf::62                     0                       # What write queue length does an incoming req see
system.mem_ctrls0.wrQLenPdf::63                     0                       # What write queue length does an incoming req see
system.mem_ctrls0.bytesPerActivate::samples         1004                       # Bytes accessed per row activation
system.mem_ctrls0.bytesPerActivate::mean   157.960159                       # Bytes accessed per row activation
system.mem_ctrls0.bytesPerActivate::gmean   105.578795                       # Bytes accessed per row activation
system.mem_ctrls0.bytesPerActivate::stdev   202.788729                       # Bytes accessed per row activation
system.mem_ctrls0.bytesPerActivate::0-127          628     62.55%     62.55% # Bytes accessed per row activation
system.mem_ctrls0.bytesPerActivate::128-255          211     21.02%     83.57% # Bytes accessed per row activation
system.mem_ctrls0.bytesPerActivate::256-383           82      8.17%     91.73% # Bytes accessed per row activation
system.mem_ctrls0.bytesPerActivate::384-511           16      1.59%     93.33% # Bytes accessed per row activation
system.mem_ctrls0.bytesPerActivate::512-639           13      1.29%     94.62% # Bytes accessed per row activation
system.mem_ctrls0.bytesPerActivate::640-767            9      0.90%     95.52% # Bytes accessed per row activation
system.mem_ctrls0.bytesPerActivate::768-895           12      1.20%     96.71% # Bytes accessed per row activation
system.mem_ctrls0.bytesPerActivate::896-1023            8      0.80%     97.51% # Bytes accessed per row activation
system.mem_ctrls0.bytesPerActivate::1024-1151           25      2.49%    100.00% # Bytes accessed per row activation
system.mem_ctrls0.bytesPerActivate::total         1004                       # Bytes accessed per row activation
system.mem_ctrls0.rdPerTurnAround::samples           36                       # Reads before turning the bus around for writes
system.mem_ctrls0.rdPerTurnAround::mean    152.777778                       # Reads before turning the bus around for writes
system.mem_ctrls0.rdPerTurnAround::stdev   678.672575                       # Reads before turning the bus around for writes
system.mem_ctrls0.rdPerTurnAround::0-127           31     86.11%     86.11% # Reads before turning the bus around for writes
system.mem_ctrls0.rdPerTurnAround::128-255            3      8.33%     94.44% # Reads before turning the bus around for writes
system.mem_ctrls0.rdPerTurnAround::384-511            1      2.78%     97.22% # Reads before turning the bus around for writes
system.mem_ctrls0.rdPerTurnAround::3968-4095            1      2.78%    100.00% # Reads before turning the bus around for writes
system.mem_ctrls0.rdPerTurnAround::total           36                       # Reads before turning the bus around for writes
system.mem_ctrls0.wrPerTurnAround::samples           36                       # Writes before turning the bus around for reads
system.mem_ctrls0.wrPerTurnAround::mean     17.972222                       # Writes before turning the bus around for reads
system.mem_ctrls0.wrPerTurnAround::gmean    17.936334                       # Writes before turning the bus around for reads
system.mem_ctrls0.wrPerTurnAround::stdev     1.158475                       # Writes before turning the bus around for reads
system.mem_ctrls0.wrPerTurnAround::16               6     16.67%     16.67% # Writes before turning the bus around for reads
system.mem_ctrls0.wrPerTurnAround::18              22     61.11%     77.78% # Writes before turning the bus around for reads
system.mem_ctrls0.wrPerTurnAround::19               7     19.44%     97.22% # Writes before turning the bus around for reads
system.mem_ctrls0.wrPerTurnAround::22               1      2.78%    100.00% # Writes before turning the bus around for reads
system.mem_ctrls0.wrPerTurnAround::total           36                       # Writes before turning the bus around for reads
system.mem_ctrls0.totQLat                    18496250                       # Total ticks spent queuing
system.mem_ctrls0.totMemAccLat               52790000                       # Total ticks spent from burst creation until serviced by the DRAM
system.mem_ctrls0.totBusLat                   9145000                       # Total ticks spent in databus transfers
system.mem_ctrls0.avgQLat                    10112.77                       # Average queueing delay per DRAM burst
system.mem_ctrls0.avgBusLat                   5000.00                       # Average bus latency per DRAM burst
system.mem_ctrls0.avgMemAccLat               28862.77                       # Average memory access latency per DRAM burst
system.mem_ctrls0.avgRdBW                        0.25                       # Average DRAM read bandwidth in MiByte/s
system.mem_ctrls0.avgWrBW                        0.09                       # Average achieved write bandwidth in MiByte/s
system.mem_ctrls0.avgRdBWSys                     0.26                       # Average system read bandwidth in MiByte/s
system.mem_ctrls0.avgWrBWSys                     0.09                       # Average system write bandwidth in MiByte/s
system.mem_ctrls0.peakBW                     12800.00                       # Theoretical peak bandwidth in MiByte/s
system.mem_ctrls0.busUtil                        0.00                       # Data bus utilization in percentage
system.mem_ctrls0.busUtilRead                    0.00                       # Data bus utilization in percentage for reads
system.mem_ctrls0.busUtilWrite                   0.00                       # Data bus utilization in percentage for writes
system.mem_ctrls0.avgRdQLen                      1.00                       # Average read queue length when enqueuing
system.mem_ctrls0.avgWrQLen                     27.82                       # Average write queue length when enqueuing
system.mem_ctrls0.readRowHits                     937                       # Number of row buffer hits during reads
system.mem_ctrls0.writeRowHits                    536                       # Number of row buffer hits during writes
system.mem_ctrls0.readRowHitRate                51.23                       # Row buffer hit rate for reads
system.mem_ctrls0.writeRowHitRate               80.12                       # Row buffer hit rate for writes
system.mem_ctrls0.avgGap                 183522567.21                       # Average gap between requests
system.mem_ctrls0.pageHitRate                   58.97                       # Row buffer hit rate, read and write combined
system.mem_ctrls0_0.actEnergy                 8520120                       # Energy for activate commands per rank (pJ)
system.mem_ctrls0_0.preEnergy                 4648875                       # Energy for precharge commands per rank (pJ)
system.mem_ctrls0_0.readEnergy               20209800                       # Energy for read commands per rank (pJ)
system.mem_ctrls0_0.writeEnergy               2928960                       # Energy for write commands per rank (pJ)
system.mem_ctrls0_0.refreshEnergy         30450030000                       # Energy for refresh commands per rank (pJ)
system.mem_ctrls0_0.actBackEnergy         11836997910                       # Energy for active background per rank (pJ)
system.mem_ctrls0_0.preBackEnergy        269337855750                       # Energy for precharge background per rank (pJ)
system.mem_ctrls0_0.totalEnergy          311661191415                       # Total energy per rank (pJ)
system.mem_ctrls0_0.averagePower           668.511087                       # Core power per rank (mW)
system.mem_ctrls0_0.memoryStateTime::IDLE 446404557500                       # Time in different power states
system.mem_ctrls0_0.memoryStateTime::REF  15455700000                       # Time in different power states
system.mem_ctrls0_0.memoryStateTime::PRE_PDN            0                       # Time in different power states
system.mem_ctrls0_0.memoryStateTime::ACT    990758500                       # Time in different power states
system.mem_ctrls0_0.memoryStateTime::ACT_PDN            0                       # Time in different power states
system.mem_ctrls0_1.actEnergy                10289160                       # Energy for activate commands per rank (pJ)
system.mem_ctrls0_1.preEnergy                 5614125                       # Energy for precharge commands per rank (pJ)
system.mem_ctrls0_1.readEnergy               23431200                       # Energy for read commands per rank (pJ)
system.mem_ctrls0_1.writeEnergy               1263600                       # Energy for write commands per rank (pJ)
system.mem_ctrls0_1.refreshEnergy         30450030000                       # Energy for refresh commands per rank (pJ)
system.mem_ctrls0_1.actBackEnergy         11973684195                       # Energy for active background per rank (pJ)
system.mem_ctrls0_1.preBackEnergy        269217947250                       # Energy for precharge background per rank (pJ)
system.mem_ctrls0_1.totalEnergy          311682259530                       # Total energy per rank (pJ)
system.mem_ctrls0_1.averagePower           668.556297                       # Core power per rank (mW)
system.mem_ctrls0_1.memoryStateTime::IDLE 446197611250                       # Time in different power states
system.mem_ctrls0_1.memoryStateTime::REF  15455700000                       # Time in different power states
system.mem_ctrls0_1.memoryStateTime::PRE_PDN            0                       # Time in different power states
system.mem_ctrls0_1.memoryStateTime::ACT   1200306250                       # Time in different power states
system.mem_ctrls0_1.memoryStateTime::ACT_PDN            0                       # Time in different power states
system.mem_ctrls1.bytes_read::ruby.dir_cntrl1       111680                       # Number of bytes read from this memory
system.mem_ctrls1.bytes_read::total            111680                       # Number of bytes read from this memory
system.mem_ctrls1.bytes_written::ruby.dir_cntrl1        41216                       # Number of bytes written to this memory
system.mem_ctrls1.bytes_written::total          41216                       # Number of bytes written to this memory
system.mem_ctrls1.num_reads::ruby.dir_cntrl1         1745                       # Number of read requests responded to by this memory
system.mem_ctrls1.num_reads::total               1745                       # Number of read requests responded to by this memory
system.mem_ctrls1.num_writes::ruby.dir_cntrl1          644                       # Number of write requests responded to by this memory
system.mem_ctrls1.num_writes::total               644                       # Number of write requests responded to by this memory
system.mem_ctrls1.bw_read::ruby.dir_cntrl1       241287                       # Total read bandwidth from this memory (bytes/s)
system.mem_ctrls1.bw_read::total               241287                       # Total read bandwidth from this memory (bytes/s)
system.mem_ctrls1.bw_write::ruby.dir_cntrl1        89048                       # Write bandwidth from this memory (bytes/s)
system.mem_ctrls1.bw_write::total               89048                       # Write bandwidth from this memory (bytes/s)
system.mem_ctrls1.bw_total::ruby.dir_cntrl1       330335                       # Total bandwidth to/from this memory (bytes/s)
system.mem_ctrls1.bw_total::total              330335                       # Total bandwidth to/from this memory (bytes/s)
system.mem_ctrls1.readReqs                       1745                       # Number of read requests accepted
system.mem_ctrls1.writeReqs                       644                       # Number of write requests accepted
system.mem_ctrls1.readBursts                     1745                       # Number of DRAM read bursts, including those serviced by the write queue
system.mem_ctrls1.writeBursts                     644                       # Number of DRAM write bursts, including those merged in the write queue
system.mem_ctrls1.bytesReadDRAM                110016                       # Total number of bytes read from DRAM
system.mem_ctrls1.bytesReadWrQ                   1664                       # Total number of bytes read from write queue
system.mem_ctrls1.bytesWritten                  40384                       # Total number of bytes written to DRAM
system.mem_ctrls1.bytesReadSys                 111680                       # Total read bytes from the system interface side
system.mem_ctrls1.bytesWrittenSys               41216                       # Total written bytes from the system interface side
system.mem_ctrls1.servicedByWrQ                    26                       # Number of DRAM read bursts serviced by the write queue
system.mem_ctrls1.mergedWrBursts                    0                       # Number of DRAM write bursts merged with an existing one
system.mem_ctrls1.neitherReadNorWriteReqs            0                       # Number of requests that are neither read nor write
system.mem_ctrls1.perBankRdBursts::0               67                       # Per bank write bursts
system.mem_ctrls1.perBankRdBursts::1               48                       # Per bank write bursts
system.mem_ctrls1.perBankRdBursts::2              122                       # Per bank write bursts
system.mem_ctrls1.perBankRdBursts::3              114                       # Per bank write bursts
system.mem_ctrls1.perBankRdBursts::4               81                       # Per bank write bursts
system.mem_ctrls1.perBankRdBursts::5               76                       # Per bank write bursts
system.mem_ctrls1.perBankRdBursts::6               50                       # Per bank write bursts
system.mem_ctrls1.perBankRdBursts::7               89                       # Per bank write bursts
system.mem_ctrls1.perBankRdBursts::8               64                       # Per bank write bursts
system.mem_ctrls1.perBankRdBursts::9              143                       # Per bank write bursts
system.mem_ctrls1.perBankRdBursts::10              63                       # Per bank write bursts
system.mem_ctrls1.perBankRdBursts::11              27                       # Per bank write bursts
system.mem_ctrls1.perBankRdBursts::12             148                       # Per bank write bursts
system.mem_ctrls1.perBankRdBursts::13             239                       # Per bank write bursts
system.mem_ctrls1.perBankRdBursts::14             186                       # Per bank write bursts
system.mem_ctrls1.perBankRdBursts::15             202                       # Per bank write bursts
system.mem_ctrls1.perBankWrBursts::0               96                       # Per bank write bursts
system.mem_ctrls1.perBankWrBursts::1              131                       # Per bank write bursts
system.mem_ctrls1.perBankWrBursts::2               19                       # Per bank write bursts
system.mem_ctrls1.perBankWrBursts::3               16                       # Per bank write bursts
system.mem_ctrls1.perBankWrBursts::4               14                       # Per bank write bursts
system.mem_ctrls1.perBankWrBursts::5               10                       # Per bank write bursts
system.mem_ctrls1.perBankWrBursts::6              128                       # Per bank write bursts
system.mem_ctrls1.perBankWrBursts::7               25                       # Per bank write bursts
system.mem_ctrls1.perBankWrBursts::8               18                       # Per bank write bursts
system.mem_ctrls1.perBankWrBursts::9               22                       # Per bank write bursts
system.mem_ctrls1.perBankWrBursts::10               4                       # Per bank write bursts
system.mem_ctrls1.perBankWrBursts::11               0                       # Per bank write bursts
system.mem_ctrls1.perBankWrBursts::12              43                       # Per bank write bursts
system.mem_ctrls1.perBankWrBursts::13              19                       # Per bank write bursts
system.mem_ctrls1.perBankWrBursts::14              34                       # Per bank write bursts
system.mem_ctrls1.perBankWrBursts::15              52                       # Per bank write bursts
system.mem_ctrls1.numRdRetry                        0                       # Number of times read queue was full causing retry
system.mem_ctrls1.numWrRetry                        0                       # Number of times write queue was full causing retry
system.mem_ctrls1.totGap                 462851508500                       # Total gap between requests
system.mem_ctrls1.readPktSize::0                    0                       # Read request sizes (log2)
system.mem_ctrls1.readPktSize::1                    0                       # Read request sizes (log2)
system.mem_ctrls1.readPktSize::2                    0                       # Read request sizes (log2)
system.mem_ctrls1.readPktSize::3                    0                       # Read request sizes (log2)
system.mem_ctrls1.readPktSize::4                    0                       # Read request sizes (log2)
system.mem_ctrls1.readPktSize::5                    0                       # Read request sizes (log2)
system.mem_ctrls1.readPktSize::6                 1745                       # Read request sizes (log2)
system.mem_ctrls1.writePktSize::0                   0                       # Write request sizes (log2)
system.mem_ctrls1.writePktSize::1                   0                       # Write request sizes (log2)
system.mem_ctrls1.writePktSize::2                   0                       # Write request sizes (log2)
system.mem_ctrls1.writePktSize::3                   0                       # Write request sizes (log2)
system.mem_ctrls1.writePktSize::4                   0                       # Write request sizes (log2)
system.mem_ctrls1.writePktSize::5                   0                       # Write request sizes (log2)
system.mem_ctrls1.writePktSize::6                 644                       # Write request sizes (log2)
system.mem_ctrls1.rdQLenPdf::0                   1705                       # What read queue length does an incoming req see
system.mem_ctrls1.rdQLenPdf::1                     14                       # What read queue length does an incoming req see
system.mem_ctrls1.rdQLenPdf::2                      0                       # What read queue length does an incoming req see
system.mem_ctrls1.rdQLenPdf::3                      0                       # What read queue length does an incoming req see
system.mem_ctrls1.rdQLenPdf::4                      0                       # What read queue length does an incoming req see
system.mem_ctrls1.rdQLenPdf::5                      0                       # What read queue length does an incoming req see
system.mem_ctrls1.rdQLenPdf::6                      0                       # What read queue length does an incoming req see
system.mem_ctrls1.rdQLenPdf::7                      0                       # What read queue length does an incoming req see
system.mem_ctrls1.rdQLenPdf::8                      0                       # What read queue length does an incoming req see
system.mem_ctrls1.rdQLenPdf::9                      0                       # What read queue length does an incoming req see
system.mem_ctrls1.rdQLenPdf::10                     0                       # What read queue length does an incoming req see
system.mem_ctrls1.rdQLenPdf::11                     0                       # What read queue length does an incoming req see
system.mem_ctrls1.rdQLenPdf::12                     0                       # What read queue length does an incoming req see
system.mem_ctrls1.rdQLenPdf::13                     0                       # What read queue length does an incoming req see
system.mem_ctrls1.rdQLenPdf::14                     0                       # What read queue length does an incoming req see
system.mem_ctrls1.rdQLenPdf::15                     0                       # What read queue length does an incoming req see
system.mem_ctrls1.rdQLenPdf::16                     0                       # What read queue length does an incoming req see
system.mem_ctrls1.rdQLenPdf::17                     0                       # What read queue length does an incoming req see
system.mem_ctrls1.rdQLenPdf::18                     0                       # What read queue length does an incoming req see
system.mem_ctrls1.rdQLenPdf::19                     0                       # What read queue length does an incoming req see
system.mem_ctrls1.rdQLenPdf::20                     0                       # What read queue length does an incoming req see
system.mem_ctrls1.rdQLenPdf::21                     0                       # What read queue length does an incoming req see
system.mem_ctrls1.rdQLenPdf::22                     0                       # What read queue length does an incoming req see
system.mem_ctrls1.rdQLenPdf::23                     0                       # What read queue length does an incoming req see
system.mem_ctrls1.rdQLenPdf::24                     0                       # What read queue length does an incoming req see
system.mem_ctrls1.rdQLenPdf::25                     0                       # What read queue length does an incoming req see
system.mem_ctrls1.rdQLenPdf::26                     0                       # What read queue length does an incoming req see
system.mem_ctrls1.rdQLenPdf::27                     0                       # What read queue length does an incoming req see
system.mem_ctrls1.rdQLenPdf::28                     0                       # What read queue length does an incoming req see
system.mem_ctrls1.rdQLenPdf::29                     0                       # What read queue length does an incoming req see
system.mem_ctrls1.rdQLenPdf::30                     0                       # What read queue length does an incoming req see
system.mem_ctrls1.rdQLenPdf::31                     0                       # What read queue length does an incoming req see
system.mem_ctrls1.wrQLenPdf::0                      0                       # What write queue length does an incoming req see
system.mem_ctrls1.wrQLenPdf::1                      0                       # What write queue length does an incoming req see
system.mem_ctrls1.wrQLenPdf::2                      0                       # What write queue length does an incoming req see
system.mem_ctrls1.wrQLenPdf::3                      0                       # What write queue length does an incoming req see
system.mem_ctrls1.wrQLenPdf::4                      0                       # What write queue length does an incoming req see
system.mem_ctrls1.wrQLenPdf::5                      0                       # What write queue length does an incoming req see
system.mem_ctrls1.wrQLenPdf::6                      0                       # What write queue length does an incoming req see
system.mem_ctrls1.wrQLenPdf::7                      0                       # What write queue length does an incoming req see
system.mem_ctrls1.wrQLenPdf::8                      0                       # What write queue length does an incoming req see
system.mem_ctrls1.wrQLenPdf::9                      1                       # What write queue length does an incoming req see
system.mem_ctrls1.wrQLenPdf::10                     1                       # What write queue length does an incoming req see
system.mem_ctrls1.wrQLenPdf::11                     1                       # What write queue length does an incoming req see
system.mem_ctrls1.wrQLenPdf::12                     1                       # What write queue length does an incoming req see
system.mem_ctrls1.wrQLenPdf::13                     1                       # What write queue length does an incoming req see
system.mem_ctrls1.wrQLenPdf::14                     1                       # What write queue length does an incoming req see
system.mem_ctrls1.wrQLenPdf::15                    31                       # What write queue length does an incoming req see
system.mem_ctrls1.wrQLenPdf::16                    34                       # What write queue length does an incoming req see
system.mem_ctrls1.wrQLenPdf::17                    37                       # What write queue length does an incoming req see
system.mem_ctrls1.wrQLenPdf::18                    37                       # What write queue length does an incoming req see
system.mem_ctrls1.wrQLenPdf::19                    40                       # What write queue length does an incoming req see
system.mem_ctrls1.wrQLenPdf::20                    36                       # What write queue length does an incoming req see
system.mem_ctrls1.wrQLenPdf::21                    38                       # What write queue length does an incoming req see
system.mem_ctrls1.wrQLenPdf::22                    35                       # What write queue length does an incoming req see
system.mem_ctrls1.wrQLenPdf::23                    35                       # What write queue length does an incoming req see
system.mem_ctrls1.wrQLenPdf::24                    35                       # What write queue length does an incoming req see
system.mem_ctrls1.wrQLenPdf::25                    35                       # What write queue length does an incoming req see
system.mem_ctrls1.wrQLenPdf::26                    35                       # What write queue length does an incoming req see
system.mem_ctrls1.wrQLenPdf::27                    35                       # What write queue length does an incoming req see
system.mem_ctrls1.wrQLenPdf::28                    35                       # What write queue length does an incoming req see
system.mem_ctrls1.wrQLenPdf::29                    35                       # What write queue length does an incoming req see
system.mem_ctrls1.wrQLenPdf::30                    35                       # What write queue length does an incoming req see
system.mem_ctrls1.wrQLenPdf::31                    35                       # What write queue length does an incoming req see
system.mem_ctrls1.wrQLenPdf::32                    35                       # What write queue length does an incoming req see
system.mem_ctrls1.wrQLenPdf::33                     0                       # What write queue length does an incoming req see
system.mem_ctrls1.wrQLenPdf::34                     0                       # What write queue length does an incoming req see
system.mem_ctrls1.wrQLenPdf::35                     0                       # What write queue length does an incoming req see
system.mem_ctrls1.wrQLenPdf::36                     0                       # What write queue length does an incoming req see
system.mem_ctrls1.wrQLenPdf::37                     0                       # What write queue length does an incoming req see
system.mem_ctrls1.wrQLenPdf::38                     0                       # What write queue length does an incoming req see
system.mem_ctrls1.wrQLenPdf::39                     0                       # What write queue length does an incoming req see
system.mem_ctrls1.wrQLenPdf::40                     0                       # What write queue length does an incoming req see
system.mem_ctrls1.wrQLenPdf::41                     0                       # What write queue length does an incoming req see
system.mem_ctrls1.wrQLenPdf::42                     0                       # What write queue length does an incoming req see
system.mem_ctrls1.wrQLenPdf::43                     0                       # What write queue length does an incoming req see
system.mem_ctrls1.wrQLenPdf::44                     0                       # What write queue length does an incoming req see
system.mem_ctrls1.wrQLenPdf::45                     0                       # What write queue length does an incoming req see
system.mem_ctrls1.wrQLenPdf::46                     0                       # What write queue length does an incoming req see
system.mem_ctrls1.wrQLenPdf::47                     0                       # What write queue length does an incoming req see
system.mem_ctrls1.wrQLenPdf::48                     0                       # What write queue length does an incoming req see
system.mem_ctrls1.wrQLenPdf::49                     0                       # What write queue length does an incoming req see
system.mem_ctrls1.wrQLenPdf::50                     0                       # What write queue length does an incoming req see
system.mem_ctrls1.wrQLenPdf::51                     0                       # What write queue length does an incoming req see
system.mem_ctrls1.wrQLenPdf::52                     0                       # What write queue length does an incoming req see
system.mem_ctrls1.wrQLenPdf::53                     0                       # What write queue length does an incoming req see
system.mem_ctrls1.wrQLenPdf::54                     0                       # What write queue length does an incoming req see
system.mem_ctrls1.wrQLenPdf::55                     0                       # What write queue length does an incoming req see
system.mem_ctrls1.wrQLenPdf::56                     0                       # What write queue length does an incoming req see
system.mem_ctrls1.wrQLenPdf::57                     0                       # What write queue length does an incoming req see
system.mem_ctrls1.wrQLenPdf::58                     0                       # What write queue length does an incoming req see
system.mem_ctrls1.wrQLenPdf::59                     0                       # What write queue length does an incoming req see
system.mem_ctrls1.wrQLenPdf::60                     0                       # What write queue length does an incoming req see
system.mem_ctrls1.wrQLenPdf::61                     0                       # What write queue length does an incoming req see
system.mem_ctrls1.wrQLenPdf::62                     0                       # What write queue length does an incoming req see
system.mem_ctrls1.wrQLenPdf::63                     0                       # What write queue length does an incoming req see
system.mem_ctrls1.bytesPerActivate::samples          928                       # Bytes accessed per row activation
system.mem_ctrls1.bytesPerActivate::mean   162.068966                       # Bytes accessed per row activation
system.mem_ctrls1.bytesPerActivate::gmean   107.074172                       # Bytes accessed per row activation
system.mem_ctrls1.bytesPerActivate::stdev   208.314082                       # Bytes accessed per row activation
system.mem_ctrls1.bytesPerActivate::0-127          579     62.39%     62.39% # Bytes accessed per row activation
system.mem_ctrls1.bytesPerActivate::128-255          183     19.72%     82.11% # Bytes accessed per row activation
system.mem_ctrls1.bytesPerActivate::256-383           81      8.73%     90.84% # Bytes accessed per row activation
system.mem_ctrls1.bytesPerActivate::384-511           26      2.80%     93.64% # Bytes accessed per row activation
system.mem_ctrls1.bytesPerActivate::512-639            8      0.86%     94.50% # Bytes accessed per row activation
system.mem_ctrls1.bytesPerActivate::640-767            6      0.65%     95.15% # Bytes accessed per row activation
system.mem_ctrls1.bytesPerActivate::768-895           11      1.19%     96.34% # Bytes accessed per row activation
system.mem_ctrls1.bytesPerActivate::896-1023            6      0.65%     96.98% # Bytes accessed per row activation
system.mem_ctrls1.bytesPerActivate::1024-1151           28      3.02%    100.00% # Bytes accessed per row activation
system.mem_ctrls1.bytesPerActivate::total          928                       # Bytes accessed per row activation
system.mem_ctrls1.rdPerTurnAround::samples           35                       # Reads before turning the bus around for writes
system.mem_ctrls1.rdPerTurnAround::mean    156.314286                       # Reads before turning the bus around for writes
system.mem_ctrls1.rdPerTurnAround::stdev   685.124238                       # Reads before turning the bus around for writes
system.mem_ctrls1.rdPerTurnAround::0-127           29     82.86%     82.86% # Reads before turning the bus around for writes
system.mem_ctrls1.rdPerTurnAround::128-255            3      8.57%     91.43% # Reads before turning the bus around for writes
system.mem_ctrls1.rdPerTurnAround::256-383            1      2.86%     94.29% # Reads before turning the bus around for writes
system.mem_ctrls1.rdPerTurnAround::384-511            1      2.86%     97.14% # Reads before turning the bus around for writes
system.mem_ctrls1.rdPerTurnAround::3968-4095            1      2.86%    100.00% # Reads before turning the bus around for writes
system.mem_ctrls1.rdPerTurnAround::total           35                       # Reads before turning the bus around for writes
system.mem_ctrls1.wrPerTurnAround::samples           35                       # Writes before turning the bus around for reads
system.mem_ctrls1.wrPerTurnAround::mean     18.028571                       # Writes before turning the bus around for reads
system.mem_ctrls1.wrPerTurnAround::gmean    18.002996                       # Writes before turning the bus around for reads
system.mem_ctrls1.wrPerTurnAround::stdev     0.954424                       # Writes before turning the bus around for reads
system.mem_ctrls1.wrPerTurnAround::16               5     14.29%     14.29% # Writes before turning the bus around for reads
system.mem_ctrls1.wrPerTurnAround::18              19     54.29%     68.57% # Writes before turning the bus around for reads
system.mem_ctrls1.wrPerTurnAround::19              11     31.43%    100.00% # Writes before turning the bus around for reads
system.mem_ctrls1.wrPerTurnAround::total           35                       # Writes before turning the bus around for reads
system.mem_ctrls1.totQLat                    17719000                       # Total ticks spent queuing
system.mem_ctrls1.totMemAccLat               49950250                       # Total ticks spent from burst creation until serviced by the DRAM
system.mem_ctrls1.totBusLat                   8595000                       # Total ticks spent in databus transfers
system.mem_ctrls1.avgQLat                    10307.74                       # Average queueing delay per DRAM burst
system.mem_ctrls1.avgBusLat                   5000.00                       # Average bus latency per DRAM burst
system.mem_ctrls1.avgMemAccLat               29057.74                       # Average memory access latency per DRAM burst
system.mem_ctrls1.avgRdBW                        0.24                       # Average DRAM read bandwidth in MiByte/s
system.mem_ctrls1.avgWrBW                        0.09                       # Average achieved write bandwidth in MiByte/s
system.mem_ctrls1.avgRdBWSys                     0.24                       # Average system read bandwidth in MiByte/s
system.mem_ctrls1.avgWrBWSys                     0.09                       # Average system write bandwidth in MiByte/s
system.mem_ctrls1.peakBW                     12800.00                       # Theoretical peak bandwidth in MiByte/s
system.mem_ctrls1.busUtil                        0.00                       # Data bus utilization in percentage
system.mem_ctrls1.busUtilRead                    0.00                       # Data bus utilization in percentage for reads
system.mem_ctrls1.busUtilWrite                   0.00                       # Data bus utilization in percentage for writes
system.mem_ctrls1.avgRdQLen                      1.00                       # Average read queue length when enqueuing
system.mem_ctrls1.avgWrQLen                     22.99                       # Average write queue length when enqueuing
system.mem_ctrls1.readRowHits                     890                       # Number of row buffer hits during reads
system.mem_ctrls1.writeRowHits                    532                       # Number of row buffer hits during writes
system.mem_ctrls1.readRowHitRate                51.77                       # Row buffer hit rate for reads
system.mem_ctrls1.writeRowHitRate               82.61                       # Row buffer hit rate for writes
system.mem_ctrls1.avgGap                 193742782.96                       # Average gap between requests
system.mem_ctrls1.pageHitRate                   60.18                       # Row buffer hit rate, read and write combined
system.mem_ctrls1_0.actEnergy                 8164800                       # Energy for activate commands per rank (pJ)
system.mem_ctrls1_0.preEnergy                 4455000                       # Energy for precharge commands per rank (pJ)
system.mem_ctrls1_0.readEnergy               19780800                       # Energy for read commands per rank (pJ)
system.mem_ctrls1_0.writeEnergy               2844720                       # Energy for write commands per rank (pJ)
system.mem_ctrls1_0.refreshEnergy         30450030000                       # Energy for refresh commands per rank (pJ)
system.mem_ctrls1_0.actBackEnergy         11759514390                       # Energy for active background per rank (pJ)
system.mem_ctrls1_0.preBackEnergy        269405815500                       # Energy for precharge background per rank (pJ)
system.mem_ctrls1_0.totalEnergy          311650605210                       # Total energy per rank (pJ)
system.mem_ctrls1_0.averagePower           668.488399                       # Core power per rank (mW)
system.mem_ctrls1_0.memoryStateTime::IDLE 446465295000                       # Time in different power states
system.mem_ctrls1_0.memoryStateTime::REF  15455700000                       # Time in different power states
system.mem_ctrls1_0.memoryStateTime::PRE_PDN            0                       # Time in different power states
system.mem_ctrls1_0.memoryStateTime::ACT    930513500                       # Time in different power states
system.mem_ctrls1_0.memoryStateTime::ACT_PDN            0                       # Time in different power states
system.mem_ctrls1_1.actEnergy                10183320                       # Energy for activate commands per rank (pJ)
system.mem_ctrls1_1.preEnergy                 5556375                       # Energy for precharge commands per rank (pJ)
system.mem_ctrls1_1.readEnergy               22986600                       # Energy for read commands per rank (pJ)
system.mem_ctrls1_1.writeEnergy               1244160                       # Energy for write commands per rank (pJ)
system.mem_ctrls1_1.refreshEnergy         30450030000                       # Energy for refresh commands per rank (pJ)
system.mem_ctrls1_1.actBackEnergy         11990960325                       # Energy for active background per rank (pJ)
system.mem_ctrls1_1.preBackEnergy        269202792750                       # Energy for precharge background per rank (pJ)
system.mem_ctrls1_1.totalEnergy          311683753530                       # Total energy per rank (pJ)
system.mem_ctrls1_1.averagePower           668.559502                       # Core power per rank (mW)
system.mem_ctrls1_1.memoryStateTime::IDLE 446218956250                       # Time in different power states
system.mem_ctrls1_1.memoryStateTime::REF  15455700000                       # Time in different power states
system.mem_ctrls1_1.memoryStateTime::PRE_PDN            0                       # Time in different power states
system.mem_ctrls1_1.memoryStateTime::ACT   1178961250                       # Time in different power states
system.mem_ctrls1_1.memoryStateTime::ACT_PDN            0                       # Time in different power states
system.mem_ctrls2.bytes_read::ruby.dir_cntrl2       109888                       # Number of bytes read from this memory
system.mem_ctrls2.bytes_read::total            109888                       # Number of bytes read from this memory
system.mem_ctrls2.bytes_written::ruby.dir_cntrl2        39168                       # Number of bytes written to this memory
system.mem_ctrls2.bytes_written::total          39168                       # Number of bytes written to this memory
system.mem_ctrls2.num_reads::ruby.dir_cntrl2         1717                       # Number of read requests responded to by this memory
system.mem_ctrls2.num_reads::total               1717                       # Number of read requests responded to by this memory
system.mem_ctrls2.num_writes::ruby.dir_cntrl2          612                       # Number of write requests responded to by this memory
system.mem_ctrls2.num_writes::total               612                       # Number of write requests responded to by this memory
system.mem_ctrls2.bw_read::ruby.dir_cntrl2       237415                       # Total read bandwidth from this memory (bytes/s)
system.mem_ctrls2.bw_read::total               237415                       # Total read bandwidth from this memory (bytes/s)
system.mem_ctrls2.bw_write::ruby.dir_cntrl2        84623                       # Write bandwidth from this memory (bytes/s)
system.mem_ctrls2.bw_write::total               84623                       # Write bandwidth from this memory (bytes/s)
system.mem_ctrls2.bw_total::ruby.dir_cntrl2       322038                       # Total bandwidth to/from this memory (bytes/s)
system.mem_ctrls2.bw_total::total              322038                       # Total bandwidth to/from this memory (bytes/s)
system.mem_ctrls2.readReqs                       1717                       # Number of read requests accepted
system.mem_ctrls2.writeReqs                       612                       # Number of write requests accepted
system.mem_ctrls2.readBursts                     1717                       # Number of DRAM read bursts, including those serviced by the write queue
system.mem_ctrls2.writeBursts                     612                       # Number of DRAM write bursts, including those merged in the write queue
system.mem_ctrls2.bytesReadDRAM                108736                       # Total number of bytes read from DRAM
system.mem_ctrls2.bytesReadWrQ                   1152                       # Total number of bytes read from write queue
system.mem_ctrls2.bytesWritten                  38208                       # Total number of bytes written to DRAM
system.mem_ctrls2.bytesReadSys                 109888                       # Total read bytes from the system interface side
system.mem_ctrls2.bytesWrittenSys               39168                       # Total written bytes from the system interface side
system.mem_ctrls2.servicedByWrQ                    18                       # Number of DRAM read bursts serviced by the write queue
system.mem_ctrls2.mergedWrBursts                    0                       # Number of DRAM write bursts merged with an existing one
system.mem_ctrls2.neitherReadNorWriteReqs            0                       # Number of requests that are neither read nor write
system.mem_ctrls2.perBankRdBursts::0               75                       # Per bank write bursts
system.mem_ctrls2.perBankRdBursts::1               53                       # Per bank write bursts
system.mem_ctrls2.perBankRdBursts::2              111                       # Per bank write bursts
system.mem_ctrls2.perBankRdBursts::3              119                       # Per bank write bursts
system.mem_ctrls2.perBankRdBursts::4               66                       # Per bank write bursts
system.mem_ctrls2.perBankRdBursts::5               58                       # Per bank write bursts
system.mem_ctrls2.perBankRdBursts::6               53                       # Per bank write bursts
system.mem_ctrls2.perBankRdBursts::7               85                       # Per bank write bursts
system.mem_ctrls2.perBankRdBursts::8               56                       # Per bank write bursts
system.mem_ctrls2.perBankRdBursts::9              145                       # Per bank write bursts
system.mem_ctrls2.perBankRdBursts::10              58                       # Per bank write bursts
system.mem_ctrls2.perBankRdBursts::11              31                       # Per bank write bursts
system.mem_ctrls2.perBankRdBursts::12             155                       # Per bank write bursts
system.mem_ctrls2.perBankRdBursts::13             245                       # Per bank write bursts
system.mem_ctrls2.perBankRdBursts::14             192                       # Per bank write bursts
system.mem_ctrls2.perBankRdBursts::15             197                       # Per bank write bursts
system.mem_ctrls2.perBankWrBursts::0               97                       # Per bank write bursts
system.mem_ctrls2.perBankWrBursts::1              130                       # Per bank write bursts
system.mem_ctrls2.perBankWrBursts::2               18                       # Per bank write bursts
system.mem_ctrls2.perBankWrBursts::3               16                       # Per bank write bursts
system.mem_ctrls2.perBankWrBursts::4               11                       # Per bank write bursts
system.mem_ctrls2.perBankWrBursts::5               11                       # Per bank write bursts
system.mem_ctrls2.perBankWrBursts::6              128                       # Per bank write bursts
system.mem_ctrls2.perBankWrBursts::7               20                       # Per bank write bursts
system.mem_ctrls2.perBankWrBursts::8               19                       # Per bank write bursts
system.mem_ctrls2.perBankWrBursts::9               18                       # Per bank write bursts
system.mem_ctrls2.perBankWrBursts::10               1                       # Per bank write bursts
system.mem_ctrls2.perBankWrBursts::11               0                       # Per bank write bursts
system.mem_ctrls2.perBankWrBursts::12              37                       # Per bank write bursts
system.mem_ctrls2.perBankWrBursts::13              16                       # Per bank write bursts
system.mem_ctrls2.perBankWrBursts::14              33                       # Per bank write bursts
system.mem_ctrls2.perBankWrBursts::15              42                       # Per bank write bursts
system.mem_ctrls2.numRdRetry                        0                       # Number of times read queue was full causing retry
system.mem_ctrls2.numWrRetry                        0                       # Number of times write queue was full causing retry
system.mem_ctrls2.totGap                 462857379500                       # Total gap between requests
system.mem_ctrls2.readPktSize::0                    0                       # Read request sizes (log2)
system.mem_ctrls2.readPktSize::1                    0                       # Read request sizes (log2)
system.mem_ctrls2.readPktSize::2                    0                       # Read request sizes (log2)
system.mem_ctrls2.readPktSize::3                    0                       # Read request sizes (log2)
system.mem_ctrls2.readPktSize::4                    0                       # Read request sizes (log2)
system.mem_ctrls2.readPktSize::5                    0                       # Read request sizes (log2)
system.mem_ctrls2.readPktSize::6                 1717                       # Read request sizes (log2)
system.mem_ctrls2.writePktSize::0                   0                       # Write request sizes (log2)
system.mem_ctrls2.writePktSize::1                   0                       # Write request sizes (log2)
system.mem_ctrls2.writePktSize::2                   0                       # Write request sizes (log2)
system.mem_ctrls2.writePktSize::3                   0                       # Write request sizes (log2)
system.mem_ctrls2.writePktSize::4                   0                       # Write request sizes (log2)
system.mem_ctrls2.writePktSize::5                   0                       # Write request sizes (log2)
system.mem_ctrls2.writePktSize::6                 612                       # Write request sizes (log2)
system.mem_ctrls2.rdQLenPdf::0                   1689                       # What read queue length does an incoming req see
system.mem_ctrls2.rdQLenPdf::1                     10                       # What read queue length does an incoming req see
system.mem_ctrls2.rdQLenPdf::2                      0                       # What read queue length does an incoming req see
system.mem_ctrls2.rdQLenPdf::3                      0                       # What read queue length does an incoming req see
system.mem_ctrls2.rdQLenPdf::4                      0                       # What read queue length does an incoming req see
system.mem_ctrls2.rdQLenPdf::5                      0                       # What read queue length does an incoming req see
system.mem_ctrls2.rdQLenPdf::6                      0                       # What read queue length does an incoming req see
system.mem_ctrls2.rdQLenPdf::7                      0                       # What read queue length does an incoming req see
system.mem_ctrls2.rdQLenPdf::8                      0                       # What read queue length does an incoming req see
system.mem_ctrls2.rdQLenPdf::9                      0                       # What read queue length does an incoming req see
system.mem_ctrls2.rdQLenPdf::10                     0                       # What read queue length does an incoming req see
system.mem_ctrls2.rdQLenPdf::11                     0                       # What read queue length does an incoming req see
system.mem_ctrls2.rdQLenPdf::12                     0                       # What read queue length does an incoming req see
system.mem_ctrls2.rdQLenPdf::13                     0                       # What read queue length does an incoming req see
system.mem_ctrls2.rdQLenPdf::14                     0                       # What read queue length does an incoming req see
system.mem_ctrls2.rdQLenPdf::15                     0                       # What read queue length does an incoming req see
system.mem_ctrls2.rdQLenPdf::16                     0                       # What read queue length does an incoming req see
system.mem_ctrls2.rdQLenPdf::17                     0                       # What read queue length does an incoming req see
system.mem_ctrls2.rdQLenPdf::18                     0                       # What read queue length does an incoming req see
system.mem_ctrls2.rdQLenPdf::19                     0                       # What read queue length does an incoming req see
system.mem_ctrls2.rdQLenPdf::20                     0                       # What read queue length does an incoming req see
system.mem_ctrls2.rdQLenPdf::21                     0                       # What read queue length does an incoming req see
system.mem_ctrls2.rdQLenPdf::22                     0                       # What read queue length does an incoming req see
system.mem_ctrls2.rdQLenPdf::23                     0                       # What read queue length does an incoming req see
system.mem_ctrls2.rdQLenPdf::24                     0                       # What read queue length does an incoming req see
system.mem_ctrls2.rdQLenPdf::25                     0                       # What read queue length does an incoming req see
system.mem_ctrls2.rdQLenPdf::26                     0                       # What read queue length does an incoming req see
system.mem_ctrls2.rdQLenPdf::27                     0                       # What read queue length does an incoming req see
system.mem_ctrls2.rdQLenPdf::28                     0                       # What read queue length does an incoming req see
system.mem_ctrls2.rdQLenPdf::29                     0                       # What read queue length does an incoming req see
system.mem_ctrls2.rdQLenPdf::30                     0                       # What read queue length does an incoming req see
system.mem_ctrls2.rdQLenPdf::31                     0                       # What read queue length does an incoming req see
system.mem_ctrls2.wrQLenPdf::0                      0                       # What write queue length does an incoming req see
system.mem_ctrls2.wrQLenPdf::1                      1                       # What write queue length does an incoming req see
system.mem_ctrls2.wrQLenPdf::2                      1                       # What write queue length does an incoming req see
system.mem_ctrls2.wrQLenPdf::3                      1                       # What write queue length does an incoming req see
system.mem_ctrls2.wrQLenPdf::4                      1                       # What write queue length does an incoming req see
system.mem_ctrls2.wrQLenPdf::5                      1                       # What write queue length does an incoming req see
system.mem_ctrls2.wrQLenPdf::6                      1                       # What write queue length does an incoming req see
system.mem_ctrls2.wrQLenPdf::7                      1                       # What write queue length does an incoming req see
system.mem_ctrls2.wrQLenPdf::8                      1                       # What write queue length does an incoming req see
system.mem_ctrls2.wrQLenPdf::9                      1                       # What write queue length does an incoming req see
system.mem_ctrls2.wrQLenPdf::10                     1                       # What write queue length does an incoming req see
system.mem_ctrls2.wrQLenPdf::11                     1                       # What write queue length does an incoming req see
system.mem_ctrls2.wrQLenPdf::12                     1                       # What write queue length does an incoming req see
system.mem_ctrls2.wrQLenPdf::13                     1                       # What write queue length does an incoming req see
system.mem_ctrls2.wrQLenPdf::14                     1                       # What write queue length does an incoming req see
system.mem_ctrls2.wrQLenPdf::15                    30                       # What write queue length does an incoming req see
system.mem_ctrls2.wrQLenPdf::16                    31                       # What write queue length does an incoming req see
system.mem_ctrls2.wrQLenPdf::17                    35                       # What write queue length does an incoming req see
system.mem_ctrls2.wrQLenPdf::18                    33                       # What write queue length does an incoming req see
system.mem_ctrls2.wrQLenPdf::19                    35                       # What write queue length does an incoming req see
system.mem_ctrls2.wrQLenPdf::20                    34                       # What write queue length does an incoming req see
system.mem_ctrls2.wrQLenPdf::21                    36                       # What write queue length does an incoming req see
system.mem_ctrls2.wrQLenPdf::22                    33                       # What write queue length does an incoming req see
system.mem_ctrls2.wrQLenPdf::23                    33                       # What write queue length does an incoming req see
system.mem_ctrls2.wrQLenPdf::24                    34                       # What write queue length does an incoming req see
system.mem_ctrls2.wrQLenPdf::25                    33                       # What write queue length does an incoming req see
system.mem_ctrls2.wrQLenPdf::26                    33                       # What write queue length does an incoming req see
system.mem_ctrls2.wrQLenPdf::27                    33                       # What write queue length does an incoming req see
system.mem_ctrls2.wrQLenPdf::28                    33                       # What write queue length does an incoming req see
system.mem_ctrls2.wrQLenPdf::29                    33                       # What write queue length does an incoming req see
system.mem_ctrls2.wrQLenPdf::30                    33                       # What write queue length does an incoming req see
system.mem_ctrls2.wrQLenPdf::31                    33                       # What write queue length does an incoming req see
system.mem_ctrls2.wrQLenPdf::32                    33                       # What write queue length does an incoming req see
system.mem_ctrls2.wrQLenPdf::33                     0                       # What write queue length does an incoming req see
system.mem_ctrls2.wrQLenPdf::34                     0                       # What write queue length does an incoming req see
system.mem_ctrls2.wrQLenPdf::35                     0                       # What write queue length does an incoming req see
system.mem_ctrls2.wrQLenPdf::36                     0                       # What write queue length does an incoming req see
system.mem_ctrls2.wrQLenPdf::37                     0                       # What write queue length does an incoming req see
system.mem_ctrls2.wrQLenPdf::38                     0                       # What write queue length does an incoming req see
system.mem_ctrls2.wrQLenPdf::39                     0                       # What write queue length does an incoming req see
system.mem_ctrls2.wrQLenPdf::40                     0                       # What write queue length does an incoming req see
system.mem_ctrls2.wrQLenPdf::41                     0                       # What write queue length does an incoming req see
system.mem_ctrls2.wrQLenPdf::42                     0                       # What write queue length does an incoming req see
system.mem_ctrls2.wrQLenPdf::43                     0                       # What write queue length does an incoming req see
system.mem_ctrls2.wrQLenPdf::44                     0                       # What write queue length does an incoming req see
system.mem_ctrls2.wrQLenPdf::45                     0                       # What write queue length does an incoming req see
system.mem_ctrls2.wrQLenPdf::46                     0                       # What write queue length does an incoming req see
[...]
system.ruby.DMA_Controller.WriteRequest  |        2240    100.00%    100.00% |           0      0.00%    100.00%
system.ruby.DMA_Controller.WriteRequest::total         2240                      
system.ruby.DMA_Controller.Data          |          30    100.00%    100.00% |           0      0.00%    100.00%
system.ruby.DMA_Controller.Data::total             30                      
system.ruby.DMA_Controller.Ack           |        2240    100.00%    100.00% |           0      0.00%    100.00%
system.ruby.DMA_Controller.Ack::total            2240                      
system.ruby.DMA_Controller.READY.ReadRequest |          30    100.00%    100.00% |           0      0.00%    100.00%
system.ruby.DMA_Controller.READY.ReadRequest::total           30                      
system.ruby.DMA_Controller.READY.WriteRequest |        2240    100.00%    100.00% |           0      0.00%    100.00%
system.ruby.DMA_Controller.READY.WriteRequest::total         2240                      
system.ruby.DMA_Controller.BUSY_RD.Data  |          30    100.00%    100.00% |           0      0.00%    100.00%
system.ruby.DMA_Controller.BUSY_RD.Data::total           30                      
system.ruby.DMA_Controller.BUSY_WR.Ack   |        2240    100.00%    100.00% |           0      0.00%    100.00%
system.ruby.DMA_Controller.BUSY_WR.Ack::total         2240                      
system.ruby.L1Cache_Controller.Load      |      382554      0.56%      0.56% |    63004831     92.71%     93.27% |      717064      1.06%     94.33% |     3853846      5.67%    100.00%
system.ruby.L1Cache_Controller.Load::total     67958295                      
system.ruby.L1Cache_Controller.Ifetch    |     1858323      0.46%      0.46% |   375492695     93.16%     93.62% |     4026647      1.00%     94.62% |    21683599      5.38%    100.00%
system.ruby.L1Cache_Controller.Ifetch::total    403061264                      
system.ruby.L1Cache_Controller.Store     |      290860      1.17%      1.17% |    21277917     85.34%     86.51% |      568391      2.28%     88.79% |     2795226     11.21%    100.00%
system.ruby.L1Cache_Controller.Store::total     24932394                      
system.ruby.L1Cache_Controller.Inv       |        3777     17.91%     17.91% |        4990     23.66%     41.56% |        5549     26.31%     67.87% |        6778     32.13%    100.00%
system.ruby.L1Cache_Controller.Inv::total        21094                      
system.ruby.L1Cache_Controller.L1_Replacement |       41232      8.12%      8.12% |      261677     51.54%     59.66% |       69580     13.71%     73.37% |      135208     26.63%    100.00%
system.ruby.L1Cache_Controller.L1_Replacement::total       507697                      
system.ruby.L1Cache_Controller.Fwd_GETX  |         667     21.11%     21.11% |         658     20.82%     41.93% |         703     22.25%     64.18% |        1132     35.82%    100.00%
system.ruby.L1Cache_Controller.Fwd_GETX::total         3160                      
system.ruby.L1Cache_Controller.Fwd_GETS  |        2544     32.09%     32.09% |        1771     22.34%     54.43% |        1465     18.48%     72.92% |        2147     27.08%    100.00%
system.ruby.L1Cache_Controller.Fwd_GETS::total         7927                      
system.ruby.L1Cache_Controller.Data      |         146     13.48%     13.48% |         272     25.12%     38.60% |         320     29.55%     68.14% |         345     31.86%    100.00%
system.ruby.L1Cache_Controller.Data::total         1083                      
system.ruby.L1Cache_Controller.Data_Exclusive |       11415      4.50%      4.50% |      198254     78.15%     82.65% |       21148      8.34%     90.98% |       22881      9.02%    100.00%
system.ruby.L1Cache_Controller.Data_Exclusive::total       253698                      
system.ruby.L1Cache_Controller.DataS_fromL1 |        1646     20.76%     20.76% |        1243     15.68%     36.45% |        2088     26.34%     62.79% |        2950     37.21%    100.00%
system.ruby.L1Cache_Controller.DataS_fromL1::total         7927                      
system.ruby.L1Cache_Controller.Data_all_Acks |       28863     11.62%     11.62% |       62309     25.09%     36.71% |       47171     18.99%     55.70% |      110033     44.30%    100.00%
system.ruby.L1Cache_Controller.Data_all_Acks::total       248376                      
system.ruby.L1Cache_Controller.Ack       |        3451     38.90%     38.90% |        1621     18.27%     57.17% |        1953     22.01%     79.18% |        1847     20.82%    100.00%
system.ruby.L1Cache_Controller.Ack::total         8872                      
system.ruby.L1Cache_Controller.Ack_all   |        1979     28.81%     28.81% |        1320     19.22%     48.03% |        1747     25.43%     73.46% |        1823     26.54%    100.00%
system.ruby.L1Cache_Controller.Ack_all::total         6869                      
system.ruby.L1Cache_Controller.WB_Ack    |       18242      5.63%      5.63% |      234834     72.45%     78.08% |       30952      9.55%     87.63% |       40083     12.37%    100.00%
system.ruby.L1Cache_Controller.WB_Ack::total       324111                      
system.ruby.L1Cache_Controller.NP.Load   |       15072      5.46%      5.46% |      204890     74.24%     79.70% |       26653      9.66%     89.35% |       29380     10.65%    100.00%
system.ruby.L1Cache_Controller.NP.Load::total       275995                      
system.ruby.L1Cache_Controller.NP.Ifetch |       17625     11.32%     11.32% |       18771     12.06%     23.38% |       32079     20.60%     43.98% |       87229     56.02%    100.00%
system.ruby.L1Cache_Controller.NP.Ifetch::total       155704                      
system.ruby.L1Cache_Controller.NP.Store  |        9002     11.75%     11.75% |       38016     49.63%     61.38% |       10985     14.34%     75.72% |       18599     24.28%    100.00%
system.ruby.L1Cache_Controller.NP.Store::total        76602                      
system.ruby.L1Cache_Controller.NP.Inv    |        1774     15.16%     15.16% |        2902     24.79%     39.95% |        3087     26.37%     66.32% |        3942     33.68%    100.00%
system.ruby.L1Cache_Controller.NP.Inv::total        11705                      
system.ruby.L1Cache_Controller.I.Load    |         255     10.83%     10.83% |         296     12.57%     23.41% |         916     38.91%     62.32% |         887     37.68%    100.00%
system.ruby.L1Cache_Controller.I.Load::total         2354                      
system.ruby.L1Cache_Controller.I.Ifetch  |          16     25.81%     25.81% |          20     32.26%     58.06% |          11     17.74%     75.81% |          15     24.19%    100.00%
system.ruby.L1Cache_Controller.I.Ifetch::total           62                      
system.ruby.L1Cache_Controller.I.Store   |         100     27.25%     27.25% |          85     23.16%     50.41% |          83     22.62%     73.02% |          99     26.98%    100.00%
system.ruby.L1Cache_Controller.I.Store::total          367                      
system.ruby.L1Cache_Controller.I.L1_Replacement |        2456     26.09%     26.09% |        2202     23.39%     49.48% |        2137     22.70%     72.19% |        2618     27.81%    100.00%
system.ruby.L1Cache_Controller.I.L1_Replacement::total         9413                      
system.ruby.L1Cache_Controller.S.Load    |       49331      0.38%      0.38% |    12587033     97.82%     98.20% |       82749      0.64%     98.84% |      148928      1.16%    100.00%
system.ruby.L1Cache_Controller.S.Load::total     12868041                      
system.ruby.L1Cache_Controller.S.Ifetch  |     1840682      0.46%      0.46% |   375473904     93.19%     93.65% |     3994555      0.99%     94.64% |    21596355      5.36%    100.00%
system.ruby.L1Cache_Controller.S.Ifetch::total    402905496                      
system.ruby.L1Cache_Controller.S.Store   |        1833     31.68%     31.68% |        1048     18.11%     49.79% |        1427     24.66%     74.46% |        1478     25.54%    100.00%
system.ruby.L1Cache_Controller.S.Store::total         5786                      
system.ruby.L1Cache_Controller.S.Inv     |        1769     20.98%     20.98% |        1800     21.35%     42.33% |        2216     26.28%     68.62% |        2646     31.38%    100.00%
system.ruby.L1Cache_Controller.S.Inv::total         8431                      
system.ruby.L1Cache_Controller.S.L1_Replacement |       20534     11.79%     11.79% |       24641     14.15%     25.94% |       36491     20.95%     46.89% |       92507     53.11%    100.00%
system.ruby.L1Cache_Controller.S.L1_Replacement::total       174173                      
system.ruby.L1Cache_Controller.E.Load    |       89306      0.34%      0.34% |    25842491     97.68%     98.02% |      181509      0.69%     98.71% |      341919      1.29%    100.00%
system.ruby.L1Cache_Controller.E.Load::total     26455225                      
system.ruby.L1Cache_Controller.E.Store   |        2882     13.70%     13.70% |        3450     16.41%     30.11% |        8035     38.21%     68.32% |        6662     31.68%    100.00%
system.ruby.L1Cache_Controller.E.Store::total        21029                      
system.ruby.L1Cache_Controller.E.Inv     |          82     30.04%     30.04% |         109     39.93%     69.96% |          55     20.15%     90.11% |          27      9.89%    100.00%
system.ruby.L1Cache_Controller.E.Inv::total          273                      
system.ruby.L1Cache_Controller.E.L1_Replacement |        7176      3.15%      3.15% |      193800     85.02%     88.17% |       12112      5.31%     93.48% |       14855      6.52%    100.00%
system.ruby.L1Cache_Controller.E.L1_Replacement::total       227943                      
system.ruby.L1Cache_Controller.E.Fwd_GETX |         108      7.83%      7.83% |         122      8.85%     16.68% |         408     29.59%     46.27% |         741     53.73%    100.00%
system.ruby.L1Cache_Controller.E.Fwd_GETX::total         1379                      
system.ruby.L1Cache_Controller.E.Fwd_GETS |         795     26.74%     26.74% |         680     22.87%     49.61% |         547     18.40%     68.01% |         951     31.99%    100.00%
system.ruby.L1Cache_Controller.E.Fwd_GETS::total         2973                      
system.ruby.L1Cache_Controller.M.Load    |      228590      0.81%      0.81% |    24370121     85.94%     86.75% |      425237      1.50%     88.25% |     3332732     11.75%    100.00%
system.ruby.L1Cache_Controller.M.Load::total     28356680                      
system.ruby.L1Cache_Controller.M.Store   |      277043      1.12%      1.12% |    21235318     85.53%     86.64% |      547861      2.21%     88.85% |     2768388     11.15%    100.00%
system.ruby.L1Cache_Controller.M.Store::total     24828610                      
system.ruby.L1Cache_Controller.M.Inv     |         152     22.19%     22.19% |         179     26.13%     48.32% |         191     27.88%     76.20% |         163     23.80%    100.00%
system.ruby.L1Cache_Controller.M.Inv::total          685                      
system.ruby.L1Cache_Controller.M.L1_Replacement |       11066     11.51%     11.51% |       41034     42.67%     54.18% |       18840     19.59%     73.77% |       25228     26.23%    100.00%
system.ruby.L1Cache_Controller.M.L1_Replacement::total        96168                      
system.ruby.L1Cache_Controller.M.Fwd_GETX |         559     31.39%     31.39% |         536     30.10%     61.48% |         295     16.56%     78.05% |         391     21.95%    100.00%
system.ruby.L1Cache_Controller.M.Fwd_GETX::total         1781                      
system.ruby.L1Cache_Controller.M.Fwd_GETS |        1749     35.31%     35.31% |        1090     22.01%     57.32% |         918     18.53%     75.85% |        1196     24.15%    100.00%
system.ruby.L1Cache_Controller.M.Fwd_GETS::total         4953                      
system.ruby.L1Cache_Controller.IS.Data_Exclusive |       11415      4.50%      4.50% |      198254     78.15%     82.65% |       21148      8.34%     90.98% |       22881      9.02%    100.00%
system.ruby.L1Cache_Controller.IS.Data_Exclusive::total       253698                      
system.ruby.L1Cache_Controller.IS.DataS_fromL1 |        1646     20.76%     20.76% |        1243     15.68%     36.45% |        2088     26.34%     62.79% |        2950     37.21%    100.00%
system.ruby.L1Cache_Controller.IS.DataS_fromL1::total         7927                      
system.ruby.L1Cache_Controller.IS.Data_all_Acks |       19907     11.54%     11.54% |       24480     14.19%     25.73% |       36423     21.12%     46.85% |       91680     53.15%    100.00%
system.ruby.L1Cache_Controller.IS.Data_all_Acks::total       172490                      
system.ruby.L1Cache_Controller.IM.Data   |         146     13.48%     13.48% |         272     25.12%     38.60% |         320     29.55%     68.14% |         345     31.86%    100.00%
system.ruby.L1Cache_Controller.IM.Data::total         1083                      
system.ruby.L1Cache_Controller.IM.Data_all_Acks |        8956     11.80%     11.80% |       37829     49.85%     61.65% |       10748     14.16%     75.82% |       18353     24.18%    100.00%
system.ruby.L1Cache_Controller.IM.Data_all_Acks::total        75886                      
system.ruby.L1Cache_Controller.SM.Ack    |        3451     38.90%     38.90% |        1621     18.27%     57.17% |        1953     22.01%     79.18% |        1847     20.82%    100.00%
system.ruby.L1Cache_Controller.SM.Ack::total         8872                      
system.ruby.L1Cache_Controller.SM.Ack_all |        1979     28.81%     28.81% |        1320     19.22%     48.03% |        1747     25.43%     73.46% |        1823     26.54%    100.00%
system.ruby.L1Cache_Controller.SM.Ack_all::total         6869                      
system.ruby.L1Cache_Controller.M_I.Ifetch |           0      0.00%      0.00% |           0      0.00%      0.00% |           2    100.00%    100.00% |           0      0.00%    100.00%
system.ruby.L1Cache_Controller.M_I.Ifetch::total            2                      
system.ruby.L1Cache_Controller.M_I.Fwd_GETS |           0      0.00%      0.00% |           1    100.00%    100.00% |           0      0.00%    100.00% |           0      0.00%    100.00%
system.ruby.L1Cache_Controller.M_I.Fwd_GETS::total            1                      
system.ruby.L1Cache_Controller.M_I.WB_Ack |       18242      5.63%      5.63% |      234833     72.45%     78.08% |       30952      9.55%     87.63% |       40083     12.37%    100.00%
system.ruby.L1Cache_Controller.M_I.WB_Ack::total       324110                      
system.ruby.L1Cache_Controller.SINK_WB_ACK.WB_Ack |           0      0.00%      0.00% |           1    100.00%    100.00% |           0      0.00%    100.00% |           0      0.00%    100.00%
system.ruby.L1Cache_Controller.SINK_WB_ACK.WB_Ack::total            1                      
system.ruby.L2Cache_Controller.L1_GET_INSTR       155766      0.00%      0.00%
system.ruby.L2Cache_Controller.L1_GETS         278382      0.00%      0.00%
system.ruby.L2Cache_Controller.L1_GETX          76972      0.00%      0.00%
system.ruby.L2Cache_Controller.L1_UPGRADE         5786      0.00%      0.00%
system.ruby.L2Cache_Controller.L1_PUTX         324112      0.00%      0.00%
system.ruby.L2Cache_Controller.L2_Replacement        13820      0.00%      0.00%
system.ruby.L2Cache_Controller.L2_Replacement_clean        12568      0.00%      0.00%
system.ruby.L2Cache_Controller.Mem_Data         43598      0.00%      0.00%
system.ruby.L2Cache_Controller.Mem_Ack          26394      0.00%      0.00%
system.ruby.L2Cache_Controller.WB_Data           5639      0.00%      0.00%
system.ruby.L2Cache_Controller.WB_Data_clean         2973      0.00%      0.00%
system.ruby.L2Cache_Controller.Ack               4800      0.00%      0.00%
system.ruby.L2Cache_Controller.Ack_all           5654      0.00%      0.00%
system.ruby.L2Cache_Controller.Unblock           7927      0.00%      0.00%
system.ruby.L2Cache_Controller.Exclusive_Unblock       336453      0.00%      0.00%
system.ruby.L2Cache_Controller.MEM_Inv             12      0.00%      0.00%
system.ruby.L2Cache_Controller.NP.L1_GET_INSTR         7014      0.00%      0.00%
system.ruby.L2Cache_Controller.NP.L1_GETS        19243      0.00%      0.00%
system.ruby.L2Cache_Controller.NP.L1_GETX        17341      0.00%      0.00%
system.ruby.L2Cache_Controller.SS.L1_GET_INSTR       148740      0.00%      0.00%
system.ruby.L2Cache_Controller.SS.L1_GETS        16724      0.00%      0.00%
system.ruby.L2Cache_Controller.SS.L1_GETX         1083      0.00%      0.00%
system.ruby.L2Cache_Controller.SS.L1_UPGRADE         5786      0.00%      0.00%
system.ruby.L2Cache_Controller.SS.L1_PUTX            1      0.00%      0.00%
system.ruby.L2Cache_Controller.SS.L2_Replacement          250      0.00%      0.00%
system.ruby.L2Cache_Controller.SS.L2_Replacement_clean         5131      0.00%      0.00%
system.ruby.L2Cache_Controller.M.L1_GET_INSTR           12      0.00%      0.00%
system.ruby.L2Cache_Controller.M.L1_GETS       234455      0.00%      0.00%
system.ruby.L2Cache_Controller.M.L1_GETX        55385      0.00%      0.00%
system.ruby.L2Cache_Controller.M.L2_Replacement        13216      0.00%      0.00%
system.ruby.L2Cache_Controller.M.L2_Replacement_clean         6839      0.00%      0.00%
system.ruby.L2Cache_Controller.MT.L1_GETS         7927      0.00%      0.00%
system.ruby.L2Cache_Controller.MT.L1_GETX         3160      0.00%      0.00%
system.ruby.L2Cache_Controller.MT.L1_PUTX       324110      0.00%      0.00%
system.ruby.L2Cache_Controller.MT.L2_Replacement          354      0.00%      0.00%
system.ruby.L2Cache_Controller.MT.L2_Replacement_clean          598      0.00%      0.00%
system.ruby.L2Cache_Controller.MT.MEM_Inv            6      0.00%      0.00%
system.ruby.L2Cache_Controller.M_I.Mem_Ack        26394      0.00%      0.00%
system.ruby.L2Cache_Controller.MT_I.WB_Data          276      0.00%      0.00%
system.ruby.L2Cache_Controller.MT_I.Ack_all           84      0.00%      0.00%
system.ruby.L2Cache_Controller.MT_I.MEM_Inv            6      0.00%      0.00%
system.ruby.L2Cache_Controller.MCT_I.WB_Data          409      0.00%      0.00%
system.ruby.L2Cache_Controller.MCT_I.Ack_all          189      0.00%      0.00%
system.ruby.L2Cache_Controller.I_I.Ack           4529      0.00%      0.00%
system.ruby.L2Cache_Controller.I_I.Ack_all         5131      0.00%      0.00%
system.ruby.L2Cache_Controller.S_I.Ack            271      0.00%      0.00%
system.ruby.L2Cache_Controller.S_I.Ack_all          250      0.00%      0.00%
system.ruby.L2Cache_Controller.ISS.Mem_Data        19243      0.00%      0.00%
system.ruby.L2Cache_Controller.IS.Mem_Data         7014      0.00%      0.00%
system.ruby.L2Cache_Controller.IM.Mem_Data        17341      0.00%      0.00%
system.ruby.L2Cache_Controller.SS_MB.L1_GETS           22      0.00%      0.00%
system.ruby.L2Cache_Controller.SS_MB.Exclusive_Unblock         6869      0.00%      0.00%
system.ruby.L2Cache_Controller.MT_MB.L1_GETS            7      0.00%      0.00%
system.ruby.L2Cache_Controller.MT_MB.L1_GETX            3      0.00%      0.00%
system.ruby.L2Cache_Controller.MT_MB.Exclusive_Unblock       329584      0.00%      0.00%
system.ruby.L2Cache_Controller.MT_IIB.L1_GETS            4      0.00%      0.00%
system.ruby.L2Cache_Controller.MT_IIB.L1_PUTX            1      0.00%      0.00%
system.ruby.L2Cache_Controller.MT_IIB.WB_Data         4951      0.00%      0.00%
system.ruby.L2Cache_Controller.MT_IIB.WB_Data_clean         2968      0.00%      0.00%
system.ruby.L2Cache_Controller.MT_IIB.Unblock            8      0.00%      0.00%
system.ruby.L2Cache_Controller.MT_IB.WB_Data            3      0.00%      0.00%
system.ruby.L2Cache_Controller.MT_IB.WB_Data_clean            5      0.00%      0.00%
system.ruby.L2Cache_Controller.MT_SB.Unblock         7919      0.00%      0.00%

---------- End Simulation Statistics   ----------
