
---------- Begin Simulation Statistics ----------
sim_seconds                                  0.462846                       # Number of seconds simulated
sim_ticks                                462846121500                       # Number of ticks simulated
final_tick                               52484269332501                       # Number of ticks from beginning of simulation (restored from checkpoints and never reset)
sim_freq                                 1000000000000                       # Frequency of simulated ticks
host_inst_rate                                 147256                       # Simulator instruction rate (inst/s)
host_op_rate                                   265763                       # Simulator op (including micro ops) rate (op/s)
host_tick_rate                              253508545                       # Simulator tick rate (ticks/s)
host_mem_usage                                1814512                       # Number of bytes of host memory used
host_seconds                                  1825.76                       # Real time elapsed on the host
sim_insts                                   268854475                       # Number of instructions simulated
sim_ops                                     485219745                       # Number of ops (including micro ops) simulated
system.voltage_domain.voltage                       1                       # Voltage in Volts
system.clk_domain.clock                          1000                       # Clock period in ticks
system.mem_ctrls.bytes_read::ruby.dir_cntrl0       421184                       # Number of bytes read from this memory
system.mem_ctrls.bytes_read::total             421184                       # Number of bytes read from this memory
system.mem_ctrls.bytes_written::ruby.dir_cntrl0       137856                       # Number of bytes written to this memory
system.mem_ctrls.bytes_written::total          137856                       # Number of bytes written to this memory
system.mem_ctrls.num_reads::ruby.dir_cntrl0         6581                       # Number of read requests responded to by this memory
system.mem_ctrls.num_reads::total                6581                       # Number of read requests responded to by this memory
system.mem_ctrls.num_writes::ruby.dir_cntrl0         2154                       # Number of write requests responded to by this memory
system.mem_ctrls.num_writes::total               2154                       # Number of write requests responded to by this memory
system.mem_ctrls.bw_read::ruby.dir_cntrl0       909987                       # Total read bandwidth from this memory (bytes/s)
system.mem_ctrls.bw_read::total                909987                       # Total read bandwidth from this memory (bytes/s)
system.mem_ctrls.bw_write::ruby.dir_cntrl0       297844                       # Write bandwidth from this memory (bytes/s)
system.mem_ctrls.bw_write::total               297844                       # Write bandwidth from this memory (bytes/s)
system.mem_ctrls.bw_total::ruby.dir_cntrl0      1207831                       # Total bandwidth to/from this memory (bytes/s)
system.mem_ctrls.bw_total::total              1207831                       # Total bandwidth to/from this memory (bytes/s)
system.mem_ctrls.readReqs                        6581                       # Number of read requests accepted
system.mem_ctrls.writeReqs                       2154                       # Number of write requests accepted
system.mem_ctrls.readBursts                      6581                       # Number of DRAM read bursts, including those serviced by the write queue
system.mem_ctrls.writeBursts                     2154                       # Number of DRAM write bursts, including those merged in the write queue
system.mem_ctrls.bytesReadDRAM                 420288                       # Total number of bytes read from DRAM
system.mem_ctrls.bytesReadWrQ                     896                       # Total number of bytes read from write queue
system.mem_ctrls.bytesWritten                  136768                       # Total number of bytes written to DRAM
system.mem_ctrls.bytesReadSys                  421184                       # Total read bytes from the system interface side
system.mem_ctrls.bytesWrittenSys               137856                       # Total written bytes from the system interface side
system.mem_ctrls.servicedByWrQ                     14                       # Number of DRAM read bursts serviced by the write queue
system.mem_ctrls.mergedWrBursts                     0                       # Number of DRAM write bursts merged with an existing one
system.mem_ctrls.neitherReadNorWriteReqs            0                       # Number of requests that are neither read nor write
system.mem_ctrls.perBankRdBursts::0               302                       # Per bank write bursts
system.mem_ctrls.perBankRdBursts::1               257                       # Per bank write bursts
system.mem_ctrls.perBankRdBursts::2               278                       # Per bank write bursts
system.mem_ctrls.perBankRdBursts::3               275                       # Per bank write bursts
system.mem_ctrls.perBankRdBursts::4               356                       # Per bank write bursts
system.mem_ctrls.perBankRdBursts::5               667                       # Per bank write bursts
system.mem_ctrls.perBankRdBursts::6               578                       # Per bank write bursts
system.mem_ctrls.perBankRdBursts::7               523                       # Per bank write bursts
system.mem_ctrls.perBankRdBursts::8               528                       # Per bank write bursts
system.mem_ctrls.perBankRdBursts::9               441                       # Per bank write bursts
system.mem_ctrls.perBankRdBursts::10              302                       # Per bank write bursts
system.mem_ctrls.perBankRdBursts::11              302                       # Per bank write bursts
system.mem_ctrls.perBankRdBursts::12              415                       # Per bank write bursts
system.mem_ctrls.perBankRdBursts::13              722                       # Per bank write bursts
system.mem_ctrls.perBankRdBursts::14              481                       # Per bank write bursts
system.mem_ctrls.perBankRdBursts::15              140                       # Per bank write bursts
system.mem_ctrls.perBankWrBursts::0               131                       # Per bank write bursts
system.mem_ctrls.perBankWrBursts::1               128                       # Per bank write bursts
system.mem_ctrls.perBankWrBursts::2                 0                       # Per bank write bursts
system.mem_ctrls.perBankWrBursts::3                 0                       # Per bank write bursts
system.mem_ctrls.perBankWrBursts::4                 0                       # Per bank write bursts
system.mem_ctrls.perBankWrBursts::5                66                       # Per bank write bursts
system.mem_ctrls.perBankWrBursts::6                72                       # Per bank write bursts
system.mem_ctrls.perBankWrBursts::7               200                       # Per bank write bursts
system.mem_ctrls.perBankWrBursts::8               132                       # Per bank write bursts
system.mem_ctrls.perBankWrBursts::9               128                       # Per bank write bursts
system.mem_ctrls.perBankWrBursts::10              128                       # Per bank write bursts
system.mem_ctrls.perBankWrBursts::11              128                       # Per bank write bursts
system.mem_ctrls.perBankWrBursts::12              256                       # Per bank write bursts
system.mem_ctrls.perBankWrBursts::13              256                       # Per bank write bursts
system.mem_ctrls.perBankWrBursts::14              320                       # Per bank write bursts
system.mem_ctrls.perBankWrBursts::15              192                       # Per bank write bursts
system.mem_ctrls.numRdRetry                         0                       # Number of times read queue was full causing retry
system.mem_ctrls.numWrRetry                         0                       # Number of times write queue was full causing retry
system.mem_ctrls.totGap                  462846037000                       # Total gap between requests
system.mem_ctrls.readPktSize::0                     0                       # Read request sizes (log2)
system.mem_ctrls.readPktSize::1                     0                       # Read request sizes (log2)
system.mem_ctrls.readPktSize::2                     0                       # Read request sizes (log2)
system.mem_ctrls.readPktSize::3                     0                       # Read request sizes (log2)
system.mem_ctrls.readPktSize::4                     0                       # Read request sizes (log2)
system.mem_ctrls.readPktSize::5                     0                       # Read request sizes (log2)
system.mem_ctrls.readPktSize::6                  6581                       # Read request sizes (log2)
system.mem_ctrls.writePktSize::0                    0                       # Write request sizes (log2)
system.mem_ctrls.writePktSize::1                    0                       # Write request sizes (log2)
system.mem_ctrls.writePktSize::2                    0                       # Write request sizes (log2)
system.mem_ctrls.writePktSize::3                    0                       # Write request sizes (log2)
system.mem_ctrls.writePktSize::4                    0                       # Write request sizes (log2)
system.mem_ctrls.writePktSize::5                    0                       # Write request sizes (log2)
system.mem_ctrls.writePktSize::6                 2154                       # Write request sizes (log2)
system.mem_ctrls.rdQLenPdf::0                    6391                       # What read queue length does an incoming req see
system.mem_ctrls.rdQLenPdf::1                     176                       # What read queue length does an incoming req see
system.mem_ctrls.rdQLenPdf::2                       0                       # What read queue length does an incoming req see
system.mem_ctrls.rdQLenPdf::3                       0                       # What read queue length does an incoming req see
system.mem_ctrls.rdQLenPdf::4                       0                       # What read queue length does an incoming req see
system.mem_ctrls.rdQLenPdf::5                       0                       # What read queue length does an incoming req see
system.mem_ctrls.rdQLenPdf::6                       0                       # What read queue length does an incoming req see
system.mem_ctrls.rdQLenPdf::7                       0                       # What read queue length does an incoming req see
system.mem_ctrls.rdQLenPdf::8                       0                       # What read queue length does an incoming req see
system.mem_ctrls.rdQLenPdf::9                       0                       # What read queue length does an incoming req see
system.mem_ctrls.rdQLenPdf::10                      0                       # What read queue length does an incoming req see
system.mem_ctrls.rdQLenPdf::11                      0                       # What read queue length does an incoming req see
system.mem_ctrls.rdQLenPdf::12                      0                       # What read queue length does an incoming req see
system.mem_ctrls.rdQLenPdf::13                      0                       # What read queue length does an incoming req see
system.mem_ctrls.rdQLenPdf::14                      0                       # What read queue length does an incoming req see
system.mem_ctrls.rdQLenPdf::15                      0                       # What read queue length does an incoming req see
system.mem_ctrls.rdQLenPdf::16                      0                       # What read queue length does an incoming req see
system.mem_ctrls.rdQLenPdf::17                      0                       # What read queue length does an incoming req see
system.mem_ctrls.rdQLenPdf::18                      0                       # What read queue length does an incoming req see
system.mem_ctrls.rdQLenPdf::19                      0                       # What read queue length does an incoming req see
system.mem_ctrls.rdQLenPdf::20                      0                       # What read queue length does an incoming req see
system.mem_ctrls.rdQLenPdf::21                      0                       # What read queue length does an incoming req see
system.mem_ctrls.rdQLenPdf::22                      0                       # What read queue length does an incoming req see
system.mem_ctrls.rdQLenPdf::23                      0                       # What read queue length does an incoming req see
system.mem_ctrls.rdQLenPdf::24                      0                       # What read queue length does an incoming req see
system.mem_ctrls.rdQLenPdf::25                      0                       # What read queue length does an incoming req see
system.mem_ctrls.rdQLenPdf::26                      0                       # What read queue length does an incoming req see
system.mem_ctrls.rdQLenPdf::27                      0                       # What read queue length does an incoming req see
system.mem_ctrls.rdQLenPdf::28                      0                       # What read queue length does an incoming req see
system.mem_ctrls.rdQLenPdf::29                      0                       # What read queue length does an incoming req see
system.mem_ctrls.rdQLenPdf::30                      0                       # What read queue length does an incoming req see
system.mem_ctrls.rdQLenPdf::31                      0                       # What read queue length does an incoming req see
system.mem_ctrls.wrQLenPdf::0                       1                       # What write queue length does an incoming req see
system.mem_ctrls.wrQLenPdf::1                       1                       # What write queue length does an incoming req see
system.mem_ctrls.wrQLenPdf::2                       1                       # What write queue length does an incoming req see
system.mem_ctrls.wrQLenPdf::3                       1                       # What write queue length does an incoming req see
system.mem_ctrls.wrQLenPdf::4                       1                       # What write queue length does an incoming req see
system.mem_ctrls.wrQLenPdf::5                       1                       # What write queue length does an incoming req see
system.mem_ctrls.wrQLenPdf::6                       1                       # What write queue length does an incoming req see
system.mem_ctrls.wrQLenPdf::7                       1                       # What write queue length does an incoming req see
system.mem_ctrls.wrQLenPdf::8                       1                       # What write queue length does an incoming req see
system.mem_ctrls.wrQLenPdf::9                       1                       # What write queue length does an incoming req see
system.mem_ctrls.wrQLenPdf::10                      1                       # What write queue length does an incoming req see
system.mem_ctrls.wrQLenPdf::11                      1                       # What write queue length does an incoming req see
system.mem_ctrls.wrQLenPdf::12                      1                       # What write queue length does an incoming req see
system.mem_ctrls.wrQLenPdf::13                      1                       # What write queue length does an incoming req see
system.mem_ctrls.wrQLenPdf::14                      1                       # What write queue length does an incoming req see
system.mem_ctrls.wrQLenPdf::15                     84                       # What write queue length does an incoming req see
system.mem_ctrls.wrQLenPdf::16                    107                       # What write queue length does an incoming req see
system.mem_ctrls.wrQLenPdf::17                    120                       # What write queue length does an incoming req see
system.mem_ctrls.wrQLenPdf::18                    144                       # What write queue length does an incoming req see
system.mem_ctrls.wrQLenPdf::19                    130                       # What write queue length does an incoming req see
system.mem_ctrls.wrQLenPdf::20                    154                       # What write queue length does an incoming req see
system.mem_ctrls.wrQLenPdf::21                    154                       # What write queue length does an incoming req see
system.mem_ctrls.wrQLenPdf::22                    114                       # What write queue length does an incoming req see
system.mem_ctrls.wrQLenPdf::23                    146                       # What write queue length does an incoming req see
system.mem_ctrls.wrQLenPdf::24                    135                       # What write queue length does an incoming req see
system.mem_ctrls.wrQLenPdf::25                    109                       # What write queue length does an incoming req see
system.mem_ctrls.wrQLenPdf::26                    122                       # What write queue length does an incoming req see
system.mem_ctrls.wrQLenPdf::27                    113                       # What write queue length does an incoming req see
system.mem_ctrls.wrQLenPdf::28                    115                       # What write queue length does an incoming req see
system.mem_ctrls.wrQLenPdf::29                     96                       # What write queue length does an incoming req see
system.mem_ctrls.wrQLenPdf::30                     97                       # What write queue length does an incoming req see
system.mem_ctrls.wrQLenPdf::31                    102                       # What write queue length does an incoming req see
system.mem_ctrls.wrQLenPdf::32                     92                       # What write queue length does an incoming req see
system.mem_ctrls.wrQLenPdf::33                      2                       # What write queue length does an incoming req see
system.mem_ctrls.wrQLenPdf::34                      1                       # What write queue length does an incoming req see
system.mem_ctrls.wrQLenPdf::35                      1                       # What write queue length does an incoming req see
system.mem_ctrls.wrQLenPdf::36                      1                       # What write queue length does an incoming req see
system.mem_ctrls.wrQLenPdf::37                      0                       # What write queue length does an incoming req see
system.mem_ctrls.wrQLenPdf::38                      0                       # What write queue length does an incoming req see
system.mem_ctrls.wrQLenPdf::39                      0                       # What write queue length does an incoming req see
system.mem_ctrls.wrQLenPdf::40                      0                       # What write queue length does an incoming req see
system.mem_ctrls.wrQLenPdf::41                      0                       # What write queue length does an incoming req see
system.mem_ctrls.wrQLenPdf::42                      0                       # What write queue length does an incoming req see
system.mem_ctrls.wrQLenPdf::43                      0                       # What write queue length does an incoming req see
system.mem_ctrls.wrQLenPdf::44                      0                       # What write queue length does an incoming req see
system.mem_ctrls.wrQLenPdf::45                      0                       # What write queue length does an incoming req see
system.mem_ctrls.wrQLenPdf::46                      0                       # What write queue length does an incoming req see
system.mem_ctrls.wrQLenPdf::47                      0                       # What write queue length does an incoming req see
system.mem_ctrls.wrQLenPdf::48                      0                       # What write queue length does an incoming req see
system.mem_ctrls.wrQLenPdf::49                      0                       # What write queue length does an incoming req see
system.mem_ctrls.wrQLenPdf::50                      0                       # What write queue length does an incoming req see
system.mem_ctrls.wrQLenPdf::51                      0                       # What write queue length does an incoming req see
system.mem_ctrls.wrQLenPdf::52                      0                       # What write queue length does an incoming req see
system.mem_ctrls.wrQLenPdf::53                      0                       # What write queue length does an incoming req see
system.mem_ctrls.wrQLenPdf::54                      0                       # What write queue length does an incoming req see
system.mem_ctrls.wrQLenPdf::55                      0                       # What write queue length does an incoming req see
system.mem_ctrls.wrQLenPdf::56                      0                       # What write queue length does an incoming req see
system.mem_ctrls.wrQLenPdf::57                      0                       # What write queue length does an incoming req see
system.mem_ctrls.wrQLenPdf::58                      0                       # What write queue length does an incoming req see
system.mem_ctrls.wrQLenPdf::59                      0                       # What write queue length does an incoming req see
system.mem_ctrls.wrQLenPdf::60                      0                       # What write queue length does an incoming req see
system.mem_ctrls.wrQLenPdf::61                      0                       # What write queue length does an incoming req see
system.mem_ctrls.wrQLenPdf::62                      0                       # What write queue length does an incoming req see
system.mem_ctrls.wrQLenPdf::63                      0                       # What write queue length does an incoming req see
system.mem_ctrls.bytesPerActivate::samples         2627                       # Bytes accessed per row activation
system.mem_ctrls.bytesPerActivate::mean    212.098972                       # Bytes accessed per row activation
system.mem_ctrls.bytesPerActivate::gmean   132.742416                       # Bytes accessed per row activation
system.mem_ctrls.bytesPerActivate::stdev   272.629456                       # Bytes accessed per row activation
system.mem_ctrls.bytesPerActivate::0-127         1040     39.59%     39.59% # Bytes accessed per row activation
system.mem_ctrls.bytesPerActivate::128-255         1091     41.53%     81.12% # Bytes accessed per row activation
system.mem_ctrls.bytesPerActivate::256-383          116      4.42%     85.53% # Bytes accessed per row activation
system.mem_ctrls.bytesPerActivate::384-511           67      2.55%     88.09% # Bytes accessed per row activation
system.mem_ctrls.bytesPerActivate::512-639           42      1.60%     89.68% # Bytes accessed per row activation
system.mem_ctrls.bytesPerActivate::640-767           29      1.10%     90.79% # Bytes accessed per row activation
system.mem_ctrls.bytesPerActivate::768-895           15      0.57%     91.36% # Bytes accessed per row activation
system.mem_ctrls.bytesPerActivate::896-1023           22      0.84%     92.20% # Bytes accessed per row activation
system.mem_ctrls.bytesPerActivate::1024-1151          205      7.80%    100.00% # Bytes accessed per row activation
system.mem_ctrls.bytesPerActivate::total         2627                       # Bytes accessed per row activation
system.mem_ctrls.rdPerTurnAround::samples           92                       # Reads before turning the bus around for writes
system.mem_ctrls.rdPerTurnAround::mean     236.195652                       # Reads before turning the bus around for writes
system.mem_ctrls.rdPerTurnAround::stdev   1733.761649                       # Reads before turning the bus around for writes
system.mem_ctrls.rdPerTurnAround::0-511            88     95.65%     95.65% # Reads before turning the bus around for writes
system.mem_ctrls.rdPerTurnAround::512-1023            2      2.17%     97.83% # Reads before turning the bus around for writes
system.mem_ctrls.rdPerTurnAround::3072-3583            1      1.09%     98.91% # Reads before turning the bus around for writes
system.mem_ctrls.rdPerTurnAround::15872-16383            1      1.09%    100.00% # Reads before turning the bus around for writes
system.mem_ctrls.rdPerTurnAround::total            92                       # Reads before turning the bus around for writes
system.mem_ctrls.wrPerTurnAround::samples           92                       # Writes before turning the bus around for reads
system.mem_ctrls.wrPerTurnAround::mean      23.228261                       # Writes before turning the bus around for reads
system.mem_ctrls.wrPerTurnAround::gmean     22.975516                       # Writes before turning the bus around for reads
system.mem_ctrls.wrPerTurnAround::stdev      3.464429                       # Writes before turning the bus around for reads
system.mem_ctrls.wrPerTurnAround::16                6      6.52%      6.52% # Writes before turning the bus around for reads
system.mem_ctrls.wrPerTurnAround::18                1      1.09%      7.61% # Writes before turning the bus around for reads
system.mem_ctrls.wrPerTurnAround::19                1      1.09%      8.70% # Writes before turning the bus around for reads
system.mem_ctrls.wrPerTurnAround::20                1      1.09%      9.78% # Writes before turning the bus around for reads
system.mem_ctrls.wrPerTurnAround::21               23     25.00%     34.78% # Writes before turning the bus around for reads
system.mem_ctrls.wrPerTurnAround::22                8      8.70%     43.48% # Writes before turning the bus around for reads
system.mem_ctrls.wrPerTurnAround::24               31     33.70%     77.17% # Writes before turning the bus around for reads
system.mem_ctrls.wrPerTurnAround::25                6      6.52%     83.70% # Writes before turning the bus around for reads
system.mem_ctrls.wrPerTurnAround::26                1      1.09%     84.78% # Writes before turning the bus around for reads
system.mem_ctrls.wrPerTurnAround::28               12     13.04%     97.83% # Writes before turning the bus around for reads
system.mem_ctrls.wrPerTurnAround::31                1      1.09%     98.91% # Writes before turning the bus around for reads
system.mem_ctrls.wrPerTurnAround::38                1      1.09%    100.00% # Writes before turning the bus around for reads
system.mem_ctrls.wrPerTurnAround::total            92                       # Writes before turning the bus around for reads
system.mem_ctrls.totQLat                     63611746                       # Total ticks spent queuing
system.mem_ctrls.totMemAccLat               186742996                       # Total ticks spent from burst creation until serviced by the DRAM
system.mem_ctrls.totBusLat                   32835000                       # Total ticks spent in databus transfers
system.mem_ctrls.avgQLat                      9686.58                       # Average queueing delay per DRAM burst
system.mem_ctrls.avgBusLat                    5000.00                       # Average bus latency per DRAM burst
system.mem_ctrls.avgMemAccLat                28436.58                       # Average memory access latency per DRAM burst
system.mem_ctrls.avgRdBW                         0.91                       # Average DRAM read bandwidth in MiByte/s
system.mem_ctrls.avgWrBW                         0.30                       # Average achieved write bandwidth in MiByte/s
system.mem_ctrls.avgRdBWSys                      0.91                       # Average system read bandwidth in MiByte/s
system.mem_ctrls.avgWrBWSys                      0.30                       # Average system write bandwidth in MiByte/s
system.mem_ctrls.peakBW                      12800.00                       # Theoretical peak bandwidth in MiByte/s
system.mem_ctrls.busUtil                         0.01                       # Data bus utilization in percentage
system.mem_ctrls.busUtilRead                     0.01                       # Data bus utilization in percentage for reads
system.mem_ctrls.busUtilWrite                    0.00                       # Data bus utilization in percentage for writes
system.mem_ctrls.avgRdQLen                       1.00                       # Average read queue length when enqueuing
system.mem_ctrls.avgWrQLen                      19.08                       # Average write queue length when enqueuing
system.mem_ctrls.readRowHits                     4099                       # Number of row buffer hits during reads
system.mem_ctrls.writeRowHits                    1978                       # Number of row buffer hits during writes
system.mem_ctrls.readRowHitRate                 62.42                       # Row buffer hit rate for reads
system.mem_ctrls.writeRowHitRate                91.83                       # Row buffer hit rate for writes
system.mem_ctrls.avgGap                   52987525.70                       # Average gap between requests
system.mem_ctrls.pageHitRate                    69.68                       # Row buffer hit rate, read and write combined
system.mem_ctrls_0.actEnergy                 25522560                       # Energy for activate commands per rank (pJ)
system.mem_ctrls_0.preEnergy                 13926000                       # Energy for precharge commands per rank (pJ)
system.mem_ctrls_0.readEnergy                91291200                       # Energy for read commands per rank (pJ)
system.mem_ctrls_0.writeEnergy                3868560                       # Energy for write commands per rank (pJ)
system.mem_ctrls_0.refreshEnergy          30449521440                       # Energy for refresh commands per rank (pJ)
system.mem_ctrls_0.actBackEnergy          12508266960                       # Energy for active background per rank (pJ)
system.mem_ctrls_0.preBackEnergy         268744343250                       # Energy for precharge background per rank (pJ)
system.mem_ctrls_0.totalEnergy           311836739970                       # Total energy per rank (pJ)
system.mem_ctrls_0.averagePower            668.898828                       # Core power per rank (mW)
system.mem_ctrls_0.memoryStateTime::IDLE 445806188500                       # Time in different power states
system.mem_ctrls_0.memoryStateTime::REF   15455440000                       # Time in different power states
system.mem_ctrls_0.memoryStateTime::PRE_PDN            0                       # Time in different power states
system.mem_ctrls_0.memoryStateTime::ACT    1584597000                       # Time in different power states
system.mem_ctrls_0.memoryStateTime::ACT_PDN            0                       # Time in different power states
system.mem_ctrls_1.actEnergy                 23768640                       # Energy for activate commands per rank (pJ)
system.mem_ctrls_1.preEnergy                 12969000                       # Energy for precharge commands per rank (pJ)
system.mem_ctrls_1.readEnergy                78218400                       # Energy for read commands per rank (pJ)
system.mem_ctrls_1.writeEnergy                9979200                       # Energy for write commands per rank (pJ)
system.mem_ctrls_1.refreshEnergy          30449521440                       # Energy for refresh commands per rank (pJ)
system.mem_ctrls_1.actBackEnergy          12855380715                       # Energy for active background per rank (pJ)
system.mem_ctrls_1.preBackEnergy         268439857500                       # Energy for precharge background per rank (pJ)
system.mem_ctrls_1.totalEnergy           311869694895                       # Total energy per rank (pJ)
system.mem_ctrls_1.averagePower            668.969518                       # Core power per rank (mW)
system.mem_ctrls_1.memoryStateTime::IDLE 445243710750                       # Time in different power states
system.mem_ctrls_1.memoryStateTime::REF   15455440000                       # Time in different power states
system.mem_ctrls_1.memoryStateTime::PRE_PDN            0                       # Time in different power states
system.mem_ctrls_1.memoryStateTime::ACT    2146680500                       # Time in different power states
system.mem_ctrls_1.memoryStateTime::ACT_PDN            0                       # Time in different power states
system.cpu_voltage_domain.voltage                   1                       # Voltage in Volts
system.cpu_clk_domain.clock                       500                       # Clock period in ticks
system.cpu0.apic_clk_domain.clock                8000                       # Clock period in ticks
system.cpu0.numCycles                       923862281                       # number of cpu cycles simulated
system.cpu0.numWorkItemsStarted                     0                       # number of work items this cpu started
system.cpu0.numWorkItemsCompleted                   0                       # number of work items this cpu completed
system.cpu0.kern.inst.arm                           0                       # number of arm instructions executed
system.cpu0.kern.inst.quiesce                       0                       # number of quiesce instructions executed
system.cpu0.committedInsts                    1056063                       # Number of instructions committed
system.cpu0.committedOps                      2061608                       # Number of ops (including micro ops) committed
system.cpu0.num_int_alu_accesses              2029796                       # Number of integer alu accesses
system.cpu0.num_fp_alu_accesses                  1778                       # Number of float alu accesses
system.cpu0.num_func_calls                      45632                       # number of times a function call or return occured
system.cpu0.num_conditional_control_insts       162554                       # number of instructions that are conditional controls
system.cpu0.num_int_insts                     2029796                       # number of integer instructions
system.cpu0.num_fp_insts                         1778                       # number of float instructions
system.cpu0.num_int_register_reads            4131664                       # number of times the integer registers were read
system.cpu0.num_int_register_writes           1653089                       # number of times the integer registers were written
system.cpu0.num_fp_register_reads                2988                       # number of times the floating registers were read
system.cpu0.num_fp_register_writes               1416                       # number of times the floating registers were written
system.cpu0.num_cc_register_reads             1171564                       # number of times the CC registers were read
system.cpu0.num_cc_register_writes             686633                       # number of times the CC registers were written
system.cpu0.num_mem_refs                       471872                       # number of memory refs
system.cpu0.num_load_insts                     289357                       # Number of load instructions
system.cpu0.num_store_insts                    182515                       # Number of store instructions
system.cpu0.num_idle_cycles              919513330.288690                       # Number of idle cycles
system.cpu0.num_busy_cycles              4348950.711310                       # Number of busy cycles
system.cpu0.not_idle_fraction                0.004707                       # Percentage of non-idle cycles
system.cpu0.idle_fraction                    0.995293                       # Percentage of idle cycles
system.cpu0.Branches                           224785                       # Number of branches fetched
system.cpu0.op_class::No_OpClass                20832      1.01%      1.01% # Class of executed instruction
system.cpu0.op_class::IntAlu                  1559246     75.63%     76.64% # Class of executed instruction
system.cpu0.op_class::IntMult                    2481      0.12%     76.76% # Class of executed instruction
system.cpu0.op_class::IntDiv                     5924      0.29%     77.05% # Class of executed instruction
system.cpu0.op_class::FloatAdd                   1344      0.07%     77.11% # Class of executed instruction
system.cpu0.op_class::FloatCmp                      0      0.00%     77.11% # Class of executed instruction
system.cpu0.op_class::FloatCvt                      0      0.00%     77.11% # Class of executed instruction
system.cpu0.op_class::FloatMult                     0      0.00%     77.11% # Class of executed instruction
system.cpu0.op_class::FloatDiv                      0      0.00%     77.11% # Class of executed instruction
system.cpu0.op_class::FloatSqrt                     0      0.00%     77.11% # Class of executed instruction
system.cpu0.op_class::SimdAdd                       0      0.00%     77.11% # Class of executed instruction
system.cpu0.op_class::SimdAddAcc                    0      0.00%     77.11% # Class of executed instruction
system.cpu0.op_class::SimdAlu                       0      0.00%     77.11% # Class of executed instruction
system.cpu0.op_class::SimdCmp                       0      0.00%     77.11% # Class of executed instruction
system.cpu0.op_class::SimdCvt                       0      0.00%     77.11% # Class of executed instruction
system.cpu0.op_class::SimdMisc                      0      0.00%     77.11% # Class of executed instruction
system.cpu0.op_class::SimdMult                      0      0.00%     77.11% # Class of executed instruction
system.cpu0.op_class::SimdMultAcc                   0      0.00%     77.11% # Class of executed instruction
system.cpu0.op_class::SimdShift                     0      0.00%     77.11% # Class of executed instruction
system.cpu0.op_class::SimdShiftAcc                  0      0.00%     77.11% # Class of executed instruction
system.cpu0.op_class::SimdSqrt                      0      0.00%     77.11% # Class of executed instruction
system.cpu0.op_class::SimdFloatAdd                  0      0.00%     77.11% # Class of executed instruction
system.cpu0.op_class::SimdFloatAlu                  0      0.00%     77.11% # Class of executed instruction
system.cpu0.op_class::SimdFloatCmp                  0      0.00%     77.11% # Class of executed instruction
system.cpu0.op_class::SimdFloatCvt                  0      0.00%     77.11% # Class of executed instruction
system.cpu0.op_class::SimdFloatDiv                  0      0.00%     77.11% # Class of executed instruction
system.cpu0.op_class::SimdFloatMisc                 0      0.00%     77.11% # Class of executed instruction
system.cpu0.op_class::SimdFloatMult                 0      0.00%     77.11% # Class of executed instruction
system.cpu0.op_class::SimdFloatMultAcc              0      0.00%     77.11% # Class of executed instruction
system.cpu0.op_class::SimdFloatSqrt                 0      0.00%     77.11% # Class of executed instruction
system.cpu0.op_class::MemRead                  289357     14.03%     91.15% # Class of executed instruction
system.cpu0.op_class::MemWrite                 182515      8.85%    100.00% # Class of executed instruction
system.cpu0.op_class::IprAccess                     0      0.00%    100.00% # Class of executed instruction
system.cpu0.op_class::InstPrefetch                  0      0.00%    100.00% # Class of executed instruction
system.cpu0.op_class::total                   2061699                       # Class of executed instruction
system.cpu1.apic_clk_domain.clock                8000                       # Clock period in ticks
system.cpu1.numCycles                       927899062                       # number of cpu cycles simulated
system.cpu1.numWorkItemsStarted                     0                       # number of work items this cpu started
system.cpu1.numWorkItemsCompleted                   0                       # number of work items this cpu completed
system.cpu1.kern.inst.arm                           0                       # number of arm instructions executed
system.cpu1.kern.inst.quiesce                       0                       # number of quiesce instructions executed
system.cpu1.committedInsts                     405603                       # Number of instructions committed
system.cpu1.committedOps                       847633                       # Number of ops (including micro ops) committed
system.cpu1.num_int_alu_accesses               830803                       # Number of integer alu accesses
system.cpu1.num_fp_alu_accesses                   387                       # Number of float alu accesses
system.cpu1.num_func_calls                      22641                       # number of times a function call or return occured
system.cpu1.num_conditional_control_insts        61457                       # number of instructions that are conditional controls
system.cpu1.num_int_insts                      830803                       # number of integer instructions
system.cpu1.num_fp_insts                          387                       # number of float instructions
system.cpu1.num_int_register_reads            1682648                       # number of times the integer registers were read
system.cpu1.num_int_register_writes            681561                       # number of times the integer registers were written
system.cpu1.num_fp_register_reads                 622                       # number of times the floating registers were read
system.cpu1.num_fp_register_writes                354                       # number of times the floating registers were written
system.cpu1.num_cc_register_reads              475088                       # number of times the CC registers were read
system.cpu1.num_cc_register_writes             258391                       # number of times the CC registers were written
system.cpu1.num_mem_refs                       201612                       # number of memory refs
system.cpu1.num_load_insts                     123833                       # Number of load instructions
system.cpu1.num_store_insts                     77779                       # Number of store instructions
system.cpu1.num_idle_cycles              926100896.431303                       # Number of idle cycles
system.cpu1.num_busy_cycles              1798165.568697                       # Number of busy cycles
system.cpu1.not_idle_fraction                0.001938                       # Percentage of non-idle cycles
system.cpu1.idle_fraction                    0.998062                       # Percentage of idle cycles
system.cpu1.Branches                            91555                       # Number of branches fetched
system.cpu1.op_class::No_OpClass                12651      1.49%      1.49% # Class of executed instruction
system.cpu1.op_class::IntAlu                   627380     74.01%     75.51% # Class of executed instruction
system.cpu1.op_class::IntMult                    1651      0.19%     75.70% # Class of executed instruction
system.cpu1.op_class::IntDiv                     4123      0.49%     76.19% # Class of executed instruction
system.cpu1.op_class::FloatAdd                    239      0.03%     76.22% # Class of executed instruction
system.cpu1.op_class::FloatCmp                      0      0.00%     76.22% # Class of executed instruction
system.cpu1.op_class::FloatCvt                      0      0.00%     76.22% # Class of executed instruction
system.cpu1.op_class::FloatMult                     0      0.00%     76.22% # Class of executed instruction
system.cpu1.op_class::FloatDiv                      0      0.00%     76.22% # Class of executed instruction
system.cpu1.op_class::FloatSqrt                     0      0.00%     76.22% # Class of executed instruction
system.cpu1.op_class::SimdAdd                       0      0.00%     76.22% # Class of executed instruction
system.cpu1.op_class::SimdAddAcc                    0      0.00%     76.22% # Class of executed instruction
system.cpu1.op_class::SimdAlu                       0      0.00%     76.22% # Class of executed instruction
system.cpu1.op_class::SimdCmp                       0      0.00%     76.22% # Class of executed instruction
system.cpu1.op_class::SimdCvt                       0      0.00%     76.22% # Class of executed instruction
system.cpu1.op_class::SimdMisc                      0      0.00%     76.22% # Class of executed instruction
system.cpu1.op_class::SimdMult                      0      0.00%     76.22% # Class of executed instruction
system.cpu1.op_class::SimdMultAcc                   0      0.00%     76.22% # Class of executed instruction
system.cpu1.op_class::SimdShift                     0      0.00%     76.22% # Class of executed instruction
system.cpu1.op_class::SimdShiftAcc                  0      0.00%     76.22% # Class of executed instruction
system.cpu1.op_class::SimdSqrt                      0      0.00%     76.22% # Class of executed instruction
system.cpu1.op_class::SimdFloatAdd                  0      0.00%     76.22% # Class of executed instruction
system.cpu1.op_class::SimdFloatAlu                  0      0.00%     76.22% # Class of executed instruction
system.cpu1.op_class::SimdFloatCmp                  0      0.00%     76.22% # Class of executed instruction
system.cpu1.op_class::SimdFloatCvt                  0      0.00%     76.22% # Class of executed instruction
system.cpu1.op_class::SimdFloatDiv                  0      0.00%     76.22% # Class of executed instruction
system.cpu1.op_class::SimdFloatMisc                 0      0.00%     76.22% # Class of executed instruction
system.cpu1.op_class::SimdFloatMult                 0      0.00%     76.22% # Class of executed instruction
system.cpu1.op_class::SimdFloatMultAcc              0      0.00%     76.22% # Class of executed instruction
system.cpu1.op_class::SimdFloatSqrt                 0      0.00%     76.22% # Class of executed instruction
system.cpu1.op_class::MemRead                  123833     14.61%     90.82% # Class of executed instruction
system.cpu1.op_class::MemWrite                  77779      9.18%    100.00% # Class of executed instruction
system.cpu1.op_class::IprAccess                     0      0.00%    100.00% # Class of executed instruction
system.cpu1.op_class::InstPrefetch                  0      0.00%    100.00% # Class of executed instruction
system.cpu1.op_class::total                    847656                       # Class of executed instruction
system.cpu2.apic_clk_domain.clock                8000                       # Clock period in ticks
system.cpu2.numCycles                       927144548                       # number of cpu cycles simulated
system.cpu2.numWorkItemsStarted                     0                       # number of work items this cpu started
system.cpu2.numWorkItemsCompleted                   0                       # number of work items this cpu completed
system.cpu2.kern.inst.arm                           0                       # number of arm instructions executed
system.cpu2.kern.inst.quiesce                       0                       # number of quiesce instructions executed
system.cpu2.committedInsts                  265732977                       # Number of instructions committed
system.cpu2.committedOps                    479161688                       # Number of ops (including micro ops) committed
system.cpu2.num_int_alu_accesses            269534019                       # Number of integer alu accesses
system.cpu2.num_fp_alu_accesses             270602519                       # Number of float alu accesses
system.cpu2.num_func_calls                    9864096                       # number of times a function call or return occured
system.cpu2.num_conditional_control_insts     14997198                       # number of instructions that are conditional controls
system.cpu2.num_int_insts                   269534019                       # number of integer instructions
system.cpu2.num_fp_insts                    270602519                       # number of float instructions
system.cpu2.num_int_register_reads          512475196                       # number of times the integer registers were read
system.cpu2.num_int_register_writes         176039459                       # number of times the integer registers were written
system.cpu2.num_fp_register_reads           446698678                       # number of times the floating registers were read
system.cpu2.num_fp_register_writes          249457043                       # number of times the floating registers were written
system.cpu2.num_cc_register_reads           106890852                       # number of times the CC registers were read
system.cpu2.num_cc_register_writes           82961334                       # number of times the CC registers were written
system.cpu2.num_mem_refs                     84019226                       # number of memory refs
system.cpu2.num_load_insts                   62863824                       # Number of load instructions
system.cpu2.num_store_insts                  21155402                       # Number of store instructions
system.cpu2.num_idle_cycles              3563682.250961                       # Number of idle cycles
system.cpu2.num_busy_cycles              923580865.749039                       # Number of busy cycles
system.cpu2.not_idle_fraction                0.996156                       # Percentage of non-idle cycles
system.cpu2.idle_fraction                    0.003844                       # Percentage of idle cycles
system.cpu2.Branches                         27044524                       # Number of branches fetched
system.cpu2.op_class::No_OpClass                10673      0.00%      0.00% # Class of executed instruction
system.cpu2.op_class::IntAlu                244759793     51.08%     51.08% # Class of executed instruction
system.cpu2.op_class::IntMult                    2385      0.00%     51.08% # Class of executed instruction
system.cpu2.op_class::IntDiv                     1786      0.00%     51.08% # Class of executed instruction
system.cpu2.op_class::FloatAdd              150367922     31.38%     82.47% # Class of executed instruction
system.cpu2.op_class::FloatCmp                      0      0.00%     82.47% # Class of executed instruction
system.cpu2.op_class::FloatCvt                      0      0.00%     82.47% # Class of executed instruction
system.cpu2.op_class::FloatMult                     0      0.00%     82.47% # Class of executed instruction
system.cpu2.op_class::FloatDiv                      0      0.00%     82.47% # Class of executed instruction
system.cpu2.op_class::FloatSqrt                     0      0.00%     82.47% # Class of executed instruction
system.cpu2.op_class::SimdAdd                       0      0.00%     82.47% # Class of executed instruction
system.cpu2.op_class::SimdAddAcc                    0      0.00%     82.47% # Class of executed instruction
system.cpu2.op_class::SimdAlu                       0      0.00%     82.47% # Class of executed instruction
system.cpu2.op_class::SimdCmp                       0      0.00%     82.47% # Class of executed instruction
system.cpu2.op_class::SimdCvt                       0      0.00%     82.47% # Class of executed instruction
system.cpu2.op_class::SimdMisc                      0      0.00%     82.47% # Class of executed instruction
system.cpu2.op_class::SimdMult                      0      0.00%     82.47% # Class of executed instruction
system.cpu2.op_class::SimdMultAcc                   0      0.00%     82.47% # Class of executed instruction
system.cpu2.op_class::SimdShift                     0      0.00%     82.47% # Class of executed instruction
system.cpu2.op_class::SimdShiftAcc                  0      0.00%     82.47% # Class of executed instruction
system.cpu2.op_class::SimdSqrt                      0      0.00%     82.47% # Class of executed instruction
system.cpu2.op_class::SimdFloatAdd                  0      0.00%     82.47% # Class of executed instruction
system.cpu2.op_class::SimdFloatAlu                  0      0.00%     82.47% # Class of executed instruction
system.cpu2.op_class::SimdFloatCmp                  0      0.00%     82.47% # Class of executed instruction
system.cpu2.op_class::SimdFloatCvt                  0      0.00%     82.47% # Class of executed instruction
system.cpu2.op_class::SimdFloatDiv                  0      0.00%     82.47% # Class of executed instruction
system.cpu2.op_class::SimdFloatMisc                 0      0.00%     82.47% # Class of executed instruction
system.cpu2.op_class::SimdFloatMult                 0      0.00%     82.47% # Class of executed instruction
system.cpu2.op_class::SimdFloatMultAcc              0      0.00%     82.47% # Class of executed instruction
system.cpu2.op_class::SimdFloatSqrt                 0      0.00%     82.47% # Class of executed instruction
system.cpu2.op_class::MemRead                62863824     13.12%     95.58% # Class of executed instruction
system.cpu2.op_class::MemWrite               21155402      4.42%    100.00% # Class of executed instruction
system.cpu2.op_class::IprAccess                     0      0.00%    100.00% # Class of executed instruction
system.cpu2.op_class::InstPrefetch                  0      0.00%    100.00% # Class of executed instruction
system.cpu2.op_class::total                 479161785                       # Class of executed instruction
system.cpu3.apic_clk_domain.clock                8000                       # Clock period in ticks
system.cpu3.numCycles                       923123289                       # number of cpu cycles simulated
system.cpu3.numWorkItemsStarted                     0                       # number of work items this cpu started
system.cpu3.numWorkItemsCompleted                   0                       # number of work items this cpu completed
system.cpu3.kern.inst.arm                           0                       # number of arm instructions executed
system.cpu3.kern.inst.quiesce                       0                       # number of quiesce instructions executed
system.cpu3.committedInsts                     341187                       # Number of instructions committed
system.cpu3.committedOps                       723134                       # Number of ops (including micro ops) committed
system.cpu3.num_int_alu_accesses               709943                       # Number of integer alu accesses
system.cpu3.num_fp_alu_accesses                    33                       # Number of float alu accesses
system.cpu3.num_func_calls                      20371                       # number of times a function call or return occured
system.cpu3.num_conditional_control_insts        51175                       # number of instructions that are conditional controls
system.cpu3.num_int_insts                      709943                       # number of integer instructions
system.cpu3.num_fp_insts                           33                       # number of float instructions
system.cpu3.num_int_register_reads            1428709                       # number of times the integer registers were read
system.cpu3.num_int_register_writes            582800                       # number of times the integer registers were written
system.cpu3.num_fp_register_reads                  14                       # number of times the floating registers were read
system.cpu3.num_fp_register_writes                 25                       # number of times the floating registers were written
system.cpu3.num_cc_register_reads              396086                       # number of times the CC registers were read
system.cpu3.num_cc_register_writes             217416                       # number of times the CC registers were written
system.cpu3.num_mem_refs                       170916                       # number of memory refs
system.cpu3.num_load_insts                     105967                       # Number of load instructions
system.cpu3.num_store_insts                     64949                       # Number of store instructions
system.cpu3.num_idle_cycles              921511964.147809                       # Number of idle cycles
system.cpu3.num_busy_cycles              1611324.852191                       # Number of busy cycles
system.cpu3.not_idle_fraction                0.001746                       # Percentage of non-idle cycles
system.cpu3.idle_fraction                    0.998254                       # Percentage of idle cycles
system.cpu3.Branches                            77918                       # Number of branches fetched
system.cpu3.op_class::No_OpClass                 9779      1.35%      1.35% # Class of executed instruction
system.cpu3.op_class::IntAlu                   537694     74.36%     75.71% # Class of executed instruction
system.cpu3.op_class::IntMult                    1523      0.21%     75.92% # Class of executed instruction
system.cpu3.op_class::IntDiv                     3208      0.44%     76.36% # Class of executed instruction
system.cpu3.op_class::FloatAdd                     17      0.00%     76.36% # Class of executed instruction
system.cpu3.op_class::FloatCmp                      0      0.00%     76.36% # Class of executed instruction
system.cpu3.op_class::FloatCvt                      0      0.00%     76.36% # Class of executed instruction
system.cpu3.op_class::FloatMult                     0      0.00%     76.36% # Class of executed instruction
system.cpu3.op_class::FloatDiv                      0      0.00%     76.36% # Class of executed instruction
system.cpu3.op_class::FloatSqrt                     0      0.00%     76.36% # Class of executed instruction
system.cpu3.op_class::SimdAdd                       0      0.00%     76.36% # Class of executed instruction
system.cpu3.op_class::SimdAddAcc                    0      0.00%     76.36% # Class of executed instruction
system.cpu3.op_class::SimdAlu                       0      0.00%     76.36% # Class of executed instruction
system.cpu3.op_class::SimdCmp                       0      0.00%     76.36% # Class of executed instruction
system.cpu3.op_class::SimdCvt                       0      0.00%     76.36% # Class of executed instruction
system.cpu3.op_class::SimdMisc                      0      0.00%     76.36% # Class of executed instruction
system.cpu3.op_class::SimdMult                      0      0.00%     76.36% # Class of executed instruction
system.cpu3.op_class::SimdMultAcc                   0      0.00%     76.36% # Class of executed instruction
system.cpu3.op_class::SimdShift                     0      0.00%     76.36% # Class of executed instruction
system.cpu3.op_class::SimdShiftAcc                  0      0.00%     76.36% # Class of executed instruction
system.cpu3.op_class::SimdSqrt                      0      0.00%     76.36% # Class of executed instruction
system.cpu3.op_class::SimdFloatAdd                  0      0.00%     76.36% # Class of executed instruction
system.cpu3.op_class::SimdFloatAlu                  0      0.00%     76.36% # Class of executed instruction
system.cpu3.op_class::SimdFloatCmp                  0      0.00%     76.36% # Class of executed instruction
system.cpu3.op_class::SimdFloatCvt                  0      0.00%     76.36% # Class of executed instruction
system.cpu3.op_class::SimdFloatDiv                  0      0.00%     76.36% # Class of executed instruction
system.cpu3.op_class::SimdFloatMisc                 0      0.00%     76.36% # Class of executed instruction
system.cpu3.op_class::SimdFloatMult                 0      0.00%     76.36% # Class of executed instruction
system.cpu3.op_class::SimdFloatMultAcc              0      0.00%     76.36% # Class of executed instruction
system.cpu3.op_class::SimdFloatSqrt                 0      0.00%     76.36% # Class of executed instruction
system.cpu3.op_class::MemRead                  105967     14.65%     91.02% # Class of executed instruction
system.cpu3.op_class::MemWrite                  64949      8.98%    100.00% # Class of executed instruction
system.cpu3.op_class::IprAccess                     0      0.00%    100.00% # Class of executed instruction
system.cpu3.op_class::InstPrefetch                  0      0.00%    100.00% # Class of executed instruction
system.cpu3.op_class::total                    723137                       # Class of executed instruction
system.iobus.trans_dist::ReadReq                  100                       # Transaction distribution
system.iobus.trans_dist::ReadResp                 100                       # Transaction distribution
system.iobus.trans_dist::WriteReq                 562                       # Transaction distribution
system.iobus.trans_dist::WriteResp                562                       # Transaction distribution
system.iobus.trans_dist::MessageReq                17                       # Transaction distribution
system.iobus.trans_dist::MessageResp               17                       # Transaction distribution
system.iobus.pkt_count_system.pc.south_bridge.io_apic.int_master::system.ruby.l1_cntrl0.sequencer.pio-slave-port            2                       # Packet count per connected master and slave (bytes)
system.iobus.pkt_count_system.pc.south_bridge.io_apic.int_master::system.ruby.l1_cntrl1.sequencer.pio-slave-port            4                       # Packet count per connected master and slave (bytes)
system.iobus.pkt_count_system.pc.south_bridge.io_apic.int_master::system.ruby.l1_cntrl2.sequencer.pio-slave-port            4                       # Packet count per connected master and slave (bytes)
system.iobus.pkt_count_system.pc.south_bridge.io_apic.int_master::system.ruby.l1_cntrl3.sequencer.pio-slave-port            4                       # Packet count per connected master and slave (bytes)
system.iobus.pkt_count_system.pc.south_bridge.io_apic.int_master::total           14                       # Packet count per connected master and slave (bytes)
system.iobus.pkt_count_system.ruby.l1_cntrl0.sequencer.mem-master-port::system.pc.south_bridge.io_apic.pio            8                       # Packet count per connected master and slave (bytes)
system.iobus.pkt_count_system.ruby.l1_cntrl0.sequencer.mem-master-port::system.ruby.l1_cntrl0.sequencer.pio-slave-port          252                       # Packet count per connected master and slave (bytes)
system.iobus.pkt_count_system.ruby.l1_cntrl0.sequencer.mem-master-port::system.ruby.l1_cntrl1.sequencer.pio-slave-port            2                       # Packet count per connected master and slave (bytes)
system.iobus.pkt_count_system.ruby.l1_cntrl0.sequencer.mem-master-port::system.ruby.l1_cntrl2.sequencer.pio-slave-port            2                       # Packet count per connected master and slave (bytes)
system.iobus.pkt_count_system.ruby.l1_cntrl0.sequencer.mem-master-port::system.ruby.l1_cntrl3.sequencer.pio-slave-port            2                       # Packet count per connected master and slave (bytes)
system.iobus.pkt_count_system.ruby.l1_cntrl0.sequencer.mem-master-port::total          266                       # Packet count per connected master and slave (bytes)
system.iobus.pkt_count_system.ruby.l1_cntrl1.sequencer.mem-master-port::system.pc.south_bridge.ide.pio           46                       # Packet count per connected master and slave (bytes)
system.iobus.pkt_count_system.ruby.l1_cntrl1.sequencer.mem-master-port::system.pc.south_bridge.io_apic.pio            8                       # Packet count per connected master and slave (bytes)
system.iobus.pkt_count_system.ruby.l1_cntrl1.sequencer.mem-master-port::system.ruby.l1_cntrl1.sequencer.pio-slave-port          248                       # Packet count per connected master and slave (bytes)
system.iobus.pkt_count_system.ruby.l1_cntrl1.sequencer.mem-master-port::system.ruby.l1_cntrl2.sequencer.pio-slave-port            2                       # Packet count per connected master and slave (bytes)
system.iobus.pkt_count_system.ruby.l1_cntrl1.sequencer.mem-master-port::total          304                       # Packet count per connected master and slave (bytes)
system.iobus.pkt_count_system.ruby.l1_cntrl2.sequencer.mem-master-port::system.pc.south_bridge.ide.pio           12                       # Packet count per connected master and slave (bytes)
system.iobus.pkt_count_system.ruby.l1_cntrl2.sequencer.mem-master-port::system.pc.south_bridge.io_apic.pio            6                       # Packet count per connected master and slave (bytes)
system.iobus.pkt_count_system.ruby.l1_cntrl2.sequencer.mem-master-port::system.pc.com_1.pio           22                       # Packet count per connected master and slave (bytes)
system.iobus.pkt_count_system.ruby.l1_cntrl2.sequencer.mem-master-port::system.ruby.l1_cntrl1.sequencer.pio-slave-port            4                       # Packet count per connected master and slave (bytes)
system.iobus.pkt_count_system.ruby.l1_cntrl2.sequencer.mem-master-port::system.ruby.l1_cntrl2.sequencer.pio-slave-port          262                       # Packet count per connected master and slave (bytes)
system.iobus.pkt_count_system.ruby.l1_cntrl2.sequencer.mem-master-port::system.ruby.l1_cntrl3.sequencer.pio-slave-port            6                       # Packet count per connected master and slave (bytes)
system.iobus.pkt_count_system.ruby.l1_cntrl2.sequencer.mem-master-port::total          312                       # Packet count per connected master and slave (bytes)
system.iobus.pkt_count_system.ruby.l1_cntrl3.sequencer.mem-master-port::system.pc.south_bridge.ide.pio           34                       # Packet count per connected master and slave (bytes)
system.iobus.pkt_count_system.ruby.l1_cntrl3.sequencer.mem-master-port::system.pc.south_bridge.io_apic.pio           14                       # Packet count per connected master and slave (bytes)
system.iobus.pkt_count_system.ruby.l1_cntrl3.sequencer.mem-master-port::system.pc.com_1.pio          162                       # Packet count per connected master and slave (bytes)
system.iobus.pkt_count_system.ruby.l1_cntrl3.sequencer.mem-master-port::system.ruby.l1_cntrl0.sequencer.pio-slave-port            2                       # Packet count per connected master and slave (bytes)
system.iobus.pkt_count_system.ruby.l1_cntrl3.sequencer.mem-master-port::system.ruby.l1_cntrl3.sequencer.pio-slave-port          250                       # Packet count per connected master and slave (bytes)
system.iobus.pkt_count_system.ruby.l1_cntrl3.sequencer.mem-master-port::total          462                       # Packet count per connected master and slave (bytes)
system.iobus.pkt_count::total                    1358                       # Packet count per connected master and slave (bytes)
system.iobus.pkt_size_system.pc.south_bridge.io_apic.int_master::system.ruby.l1_cntrl0.sequencer.pio-slave-port            4                       # Cumulative packet size per connected master and slave (bytes)
system.iobus.pkt_size_system.pc.south_bridge.io_apic.int_master::system.ruby.l1_cntrl1.sequencer.pio-slave-port            8                       # Cumulative packet size per connected master and slave (bytes)
system.iobus.pkt_size_system.pc.south_bridge.io_apic.int_master::system.ruby.l1_cntrl2.sequencer.pio-slave-port            8                       # Cumulative packet size per connected master and slave (bytes)
system.iobus.pkt_size_system.pc.south_bridge.io_apic.int_master::system.ruby.l1_cntrl3.sequencer.pio-slave-port            8                       # Cumulative packet size per connected master and slave (bytes)
system.iobus.pkt_size_system.pc.south_bridge.io_apic.int_master::total           28                       # Cumulative packet size per connected master and slave (bytes)
system.iobus.pkt_size_system.ruby.l1_cntrl0.sequencer.mem-master-port::system.pc.south_bridge.io_apic.pio           16                       # Cumulative packet size per connected master and slave (bytes)
system.iobus.pkt_size_system.ruby.l1_cntrl0.sequencer.mem-master-port::system.ruby.l1_cntrl0.sequencer.pio-slave-port          504                       # Cumulative packet size per connected master and slave (bytes)
system.iobus.pkt_size_system.ruby.l1_cntrl0.sequencer.mem-master-port::system.ruby.l1_cntrl1.sequencer.pio-slave-port            4                       # Cumulative packet size per connected master and slave (bytes)
system.iobus.pkt_size_system.ruby.l1_cntrl0.sequencer.mem-master-port::system.ruby.l1_cntrl2.sequencer.pio-slave-port            4                       # Cumulative packet size per connected master and slave (bytes)
system.iobus.pkt_size_system.ruby.l1_cntrl0.sequencer.mem-master-port::system.ruby.l1_cntrl3.sequencer.pio-slave-port            4                       # Cumulative packet size per connected master and slave (bytes)
system.iobus.pkt_size_system.ruby.l1_cntrl0.sequencer.mem-master-port::total          532                       # Cumulative packet size per connected master and slave (bytes)
system.iobus.pkt_size_system.ruby.l1_cntrl1.sequencer.mem-master-port::system.pc.south_bridge.ide.pio           26                       # Cumulative packet size per connected master and slave (bytes)
system.iobus.pkt_size_system.ruby.l1_cntrl1.sequencer.mem-master-port::system.pc.south_bridge.io_apic.pio           16                       # Cumulative packet size per connected master and slave (bytes)
system.iobus.pkt_size_system.ruby.l1_cntrl1.sequencer.mem-master-port::system.ruby.l1_cntrl1.sequencer.pio-slave-port          496                       # Cumulative packet size per connected master and slave (bytes)
system.iobus.pkt_size_system.ruby.l1_cntrl1.sequencer.mem-master-port::system.ruby.l1_cntrl2.sequencer.pio-slave-port            4                       # Cumulative packet size per connected master and slave (bytes)
system.iobus.pkt_size_system.ruby.l1_cntrl1.sequencer.mem-master-port::total          542                       # Cumulative packet size per connected master and slave (bytes)
system.iobus.pkt_size_system.ruby.l1_cntrl2.sequencer.mem-master-port::system.pc.south_bridge.ide.pio            6                       # Cumulative packet size per connected master and slave (bytes)
system.iobus.pkt_size_system.ruby.l1_cntrl2.sequencer.mem-master-port::system.pc.south_bridge.io_apic.pio           12                       # Cumulative packet size per connected master and slave (bytes)
system.iobus.pkt_size_system.ruby.l1_cntrl2.sequencer.mem-master-port::system.pc.com_1.pio           11                       # Cumulative packet size per connected master and slave (bytes)
system.iobus.pkt_size_system.ruby.l1_cntrl2.sequencer.mem-master-port::system.ruby.l1_cntrl1.sequencer.pio-slave-port            8                       # Cumulative packet size per connected master and slave (bytes)
system.iobus.pkt_size_system.ruby.l1_cntrl2.sequencer.mem-master-port::system.ruby.l1_cntrl2.sequencer.pio-slave-port          524                       # Cumulative packet size per connected master and slave (bytes)
system.iobus.pkt_size_system.ruby.l1_cntrl2.sequencer.mem-master-port::system.ruby.l1_cntrl3.sequencer.pio-slave-port           12                       # Cumulative packet size per connected master and slave (bytes)
system.iobus.pkt_size_system.ruby.l1_cntrl2.sequencer.mem-master-port::total          573                       # Cumulative packet size per connected master and slave (bytes)
system.iobus.pkt_size_system.ruby.l1_cntrl3.sequencer.mem-master-port::system.pc.south_bridge.ide.pio           20                       # Cumulative packet size per connected master and slave (bytes)
system.iobus.pkt_size_system.ruby.l1_cntrl3.sequencer.mem-master-port::system.pc.south_bridge.io_apic.pio           28                       # Cumulative packet size per connected master and slave (bytes)
system.iobus.pkt_size_system.ruby.l1_cntrl3.sequencer.mem-master-port::system.pc.com_1.pio           81                       # Cumulative packet size per connected master and slave (bytes)
system.iobus.pkt_size_system.ruby.l1_cntrl3.sequencer.mem-master-port::system.ruby.l1_cntrl0.sequencer.pio-slave-port            4                       # Cumulative packet size per connected master and slave (bytes)
system.iobus.pkt_size_system.ruby.l1_cntrl3.sequencer.mem-master-port::system.ruby.l1_cntrl3.sequencer.pio-slave-port          500                       # Cumulative packet size per connected master and slave (bytes)
system.iobus.pkt_size_system.ruby.l1_cntrl3.sequencer.mem-master-port::total          633                       # Cumulative packet size per connected master and slave (bytes)
system.iobus.pkt_size::total                     2308                       # Cumulative packet size per connected master and slave (bytes)
system.iobus.reqLayer2.occupancy                81000                       # Layer occupancy (ticks)
system.iobus.reqLayer2.utilization                0.0                       # Layer utilization (%)
system.iobus.reqLayer8.occupancy                31996                       # Layer occupancy (ticks)
system.iobus.reqLayer8.utilization                0.0                       # Layer utilization (%)
system.iobus.reqLayer12.occupancy              120000                       # Layer occupancy (ticks)
system.iobus.reqLayer12.utilization               0.0                       # Layer utilization (%)
system.iobus.reqLayer17.occupancy              313998                       # Layer occupancy (ticks)
system.iobus.reqLayer17.utilization               0.0                       # Layer utilization (%)
system.iobus.reqLayer18.occupancy              318499                       # Layer occupancy (ticks)
system.iobus.reqLayer18.utilization               0.0                       # Layer utilization (%)
system.iobus.reqLayer19.occupancy              295996                       # Layer occupancy (ticks)
system.iobus.reqLayer19.utilization               0.0                       # Layer utilization (%)
system.iobus.reqLayer20.occupancy              323998                       # Layer occupancy (ticks)
system.iobus.reqLayer20.utilization               0.0                       # Layer utilization (%)
system.iobus.respLayer0.occupancy                9498                       # Layer occupancy (ticks)
system.iobus.respLayer0.utilization               0.0                       # Layer utilization (%)
system.iobus.respLayer2.occupancy              201000                       # Layer occupancy (ticks)
system.iobus.respLayer2.utilization               0.0                       # Layer utilization (%)
system.iobus.respLayer4.occupancy              225000                       # Layer occupancy (ticks)
system.iobus.respLayer4.utilization               0.0                       # Layer utilization (%)
system.iobus.respLayer6.occupancy              238500                       # Layer occupancy (ticks)
system.iobus.respLayer6.utilization               0.0                       # Layer utilization (%)
system.iobus.respLayer8.occupancy              360500                       # Layer occupancy (ticks)
system.iobus.respLayer8.utilization               0.0                       # Layer utilization (%)
system.pc.south_bridge.ide.disks.dma_read_full_pages            0                       # Number of full page size DMA reads (not PRD).
system.pc.south_bridge.ide.disks.dma_read_bytes            0                       # Number of bytes transfered via DMA reads (not PRD).
system.pc.south_bridge.ide.disks.dma_read_txs            0                       # Number of DMA read transactions (not PRD).
system.pc.south_bridge.ide.disks.dma_write_full_pages           33                       # Number of full page size DMA writes.
system.pc.south_bridge.ide.disks.dma_write_bytes       135168                       # Number of bytes transfered via DMA writes.
system.pc.south_bridge.ide.disks.dma_write_txs           33                       # Number of DMA write transactions.
system.ruby.clk_domain.clock                      500                       # Clock period in ticks
system.ruby.delayHist::bucket_size                  4                       # delay histogram for all message
system.ruby.delayHist::max_bucket                  39                       # delay histogram for all message
system.ruby.delayHist::samples                1308003                       # delay histogram for all message
system.ruby.delayHist::mean                  0.306935                       # delay histogram for all message
system.ruby.delayHist::stdev                 1.539405                       # delay histogram for all message
system.ruby.delayHist                    |     1258149     96.19%     96.19% |         395      0.03%     96.22% |       49311      3.77%     99.99% |          43      0.00%     99.99% |          85      0.01%    100.00% |           5      0.00%    100.00% |          11      0.00%    100.00% |           3      0.00%    100.00% |           0      0.00%    100.00% |           1      0.00%    100.00% # delay histogram for all message
system.ruby.delayHist::total                  1308003                       # delay histogram for all message
system.ruby.outstanding_req_hist_seqr::bucket_size            1                      
system.ruby.outstanding_req_hist_seqr::max_bucket            9                      
system.ruby.outstanding_req_hist_seqr::samples    462058295                      
system.ruby.outstanding_req_hist_seqr::mean     1.000000                      
system.ruby.outstanding_req_hist_seqr::gmean     1.000000                      
system.ruby.outstanding_req_hist_seqr::stdev     0.000650                      
system.ruby.outstanding_req_hist_seqr    |           0      0.00%      0.00% |   462058100    100.00%    100.00% |         195      0.00%    100.00% |           0      0.00%    100.00% |           0      0.00%    100.00% |           0      0.00%    100.00% |           0      0.00%    100.00% |           0      0.00%    100.00% |           0      0.00%    100.00% |           0      0.00%    100.00%
system.ruby.outstanding_req_hist_seqr::total    462058295                      
system.ruby.latency_hist_seqr::bucket_size          128                      
system.ruby.latency_hist_seqr::max_bucket         1279                      
system.ruby.latency_hist_seqr::samples      462058295                      
system.ruby.latency_hist_seqr::mean          1.012225                      
system.ruby.latency_hist_seqr::gmean         1.001845                      
system.ruby.latency_hist_seqr::stdev         0.679919                      
system.ruby.latency_hist_seqr            |   462055817    100.00%    100.00% |        2374      0.00%    100.00% |          13      0.00%    100.00% |          24      0.00%    100.00% |          46      0.00%    100.00% |          21      0.00%    100.00% |           0      0.00%    100.00% |           0      0.00%    100.00% |           0      0.00%    100.00% |           0      0.00%    100.00%
system.ruby.latency_hist_seqr::total        462058295                      
system.ruby.hit_latency_hist_seqr::bucket_size            1                      
system.ruby.hit_latency_hist_seqr::max_bucket            9                      
system.ruby.hit_latency_hist_seqr::samples    461766551                      
system.ruby.hit_latency_hist_seqr::mean             1                      
system.ruby.hit_latency_hist_seqr::gmean            1                      
[...]
system.ruby.Directory_Controller.IM.Memory_Data        32924      0.00%      0.00%
system.ruby.Directory_Controller.MI.Memory_Ack         1600      0.00%      0.00%
system.ruby.Directory_Controller.M_DRD.Data            7      0.00%      0.00%
system.ruby.Directory_Controller.M_DRDI.Memory_Ack            7      0.00%      0.00%
system.ruby.Directory_Controller.M_DWR.Data           63      0.00%      0.00%
system.ruby.Directory_Controller.M_DWRI.Memory_Ack           63      0.00%      0.00%
system.ruby.DMA_Controller.ReadRequest   |          35    100.00%    100.00% |           0      0.00%    100.00%
system.ruby.DMA_Controller.ReadRequest::total           35                      
system.ruby.DMA_Controller.WriteRequest  |        2240    100.00%    100.00% |           0      0.00%    100.00%
system.ruby.DMA_Controller.WriteRequest::total         2240                      
system.ruby.DMA_Controller.Data          |          35    100.00%    100.00% |           0      0.00%    100.00%
system.ruby.DMA_Controller.Data::total             35                      
system.ruby.DMA_Controller.Ack           |        2240    100.00%    100.00% |           0      0.00%    100.00%
system.ruby.DMA_Controller.Ack::total            2240                      
system.ruby.DMA_Controller.READY.ReadRequest |          35    100.00%    100.00% |           0      0.00%    100.00%
system.ruby.DMA_Controller.READY.ReadRequest::total           35                      
system.ruby.DMA_Controller.READY.WriteRequest |        2240    100.00%    100.00% |           0      0.00%    100.00%
system.ruby.DMA_Controller.READY.WriteRequest::total         2240                      
system.ruby.DMA_Controller.BUSY_RD.Data  |          35    100.00%    100.00% |           0      0.00%    100.00%
system.ruby.DMA_Controller.BUSY_RD.Data::total           35                      
system.ruby.DMA_Controller.BUSY_WR.Ack   |        2240    100.00%    100.00% |           0      0.00%    100.00%
system.ruby.DMA_Controller.BUSY_WR.Ack::total         2240                      
system.ruby.L1Cache_Controller.Load      |     3869295      5.69%      5.69% |      381516      0.56%      6.25% |    63004924     92.70%     98.95% |      711026      1.05%    100.00%
system.ruby.L1Cache_Controller.Load::total     67966761                      
system.ruby.L1Cache_Controller.Ifetch    |    21762763      5.40%      5.40% |     1838733      0.46%      5.86% |   375494848     93.15%     99.01% |     3994752      0.99%    100.00%
system.ruby.L1Cache_Controller.Ifetch::total    403091096                      
system.ruby.L1Cache_Controller.Store     |     2810259     11.27%     11.27% |      286818      1.15%     12.42% |    21277607     85.31%     97.73% |      565962      2.27%    100.00%
system.ruby.L1Cache_Controller.Store::total     24940646                      
system.ruby.L1Cache_Controller.Inv       |        3103     27.24%     27.24% |        3220     28.26%     55.50% |        2372     20.82%     76.32% |        2698     23.68%    100.00%
system.ruby.L1Cache_Controller.Inv::total        11393                      
system.ruby.L1Cache_Controller.L1_Replacement |      137883     27.20%     27.20% |       40416      7.97%     35.17% |      259684     51.23%     86.40% |       68938     13.60%    100.00%
system.ruby.L1Cache_Controller.L1_Replacement::total       506921                      
system.ruby.L1Cache_Controller.Fwd_GETX  |        1124     32.99%     32.99% |         739     21.69%     54.68% |         761     22.34%     77.02% |         783     22.98%    100.00%
system.ruby.L1Cache_Controller.Fwd_GETX::total         3407                      
system.ruby.L1Cache_Controller.Fwd_GETS  |        3234     39.35%     39.35% |        1744     21.22%     60.57% |        1663     20.24%     80.81% |        1577     19.19%    100.00%
system.ruby.L1Cache_Controller.Fwd_GETS::total         8218                      
system.ruby.L1Cache_Controller.Data      |         479     39.26%     39.26% |         219     17.95%     57.21% |         307     25.16%     82.38% |         215     17.62%    100.00%
system.ruby.L1Cache_Controller.Data::total         1220                      
system.ruby.L1Cache_Controller.Data_Exclusive |       22907      9.50%      9.50% |       11001      4.56%     14.07% |      186353     77.32%     91.39% |       20757      8.61%    100.00%
system.ruby.L1Cache_Controller.Data_Exclusive::total       241018                      
system.ruby.L1Cache_Controller.DataS_fromL1 |        2446     29.76%     29.76% |        1958     23.83%     53.59% |        1476     17.96%     71.55% |        2338     28.45%    100.00%
system.ruby.L1Cache_Controller.DataS_fromL1::total         8218                      
system.ruby.L1Cache_Controller.Data_all_Acks |      112599     43.29%     43.29% |       28761     11.06%     54.35% |       71909     27.65%     81.99% |       46837     18.01%    100.00%
system.ruby.L1Cache_Controller.Data_all_Acks::total       260106                      
system.ruby.L1Cache_Controller.Ack       |        3872     41.79%     41.79% |        1452     15.67%     57.46% |        1805     19.48%     76.94% |        2137     23.06%    100.00%
system.ruby.L1Cache_Controller.Ack::total         9266                      
system.ruby.L1Cache_Controller.Ack_all   |        2710     37.32%     37.32% |        1348     18.56%     55.88% |        1496     20.60%     76.48% |        1708     23.52%    100.00%
system.ruby.L1Cache_Controller.Ack_all::total         7262                      
system.ruby.L1Cache_Controller.WB_Ack    |       39999     12.76%     12.76% |       18106      5.78%     18.54% |      224387     71.60%     90.15% |       30880      9.85%    100.00%
system.ruby.L1Cache_Controller.WB_Ack::total       313372                      
system.ruby.L1Cache_Controller.NP.Load   |       29357     10.81%     10.81% |       15352      5.65%     16.46% |      200896     73.95%     90.40% |       26068      9.60%    100.00%
system.ruby.L1Cache_Controller.NP.Load::total       271673                      
system.ruby.L1Cache_Controller.NP.Ifetch |       89824     56.89%     56.89% |       16485     10.44%     67.33% |       19687     12.47%     79.80% |       31896     20.20%    100.00%
system.ruby.L1Cache_Controller.NP.Ifetch::total       157892                      
system.ruby.L1Cache_Controller.NP.Store  |       18702     23.96%     23.96% |        9068     11.62%     35.57% |       39101     50.09%     85.67% |       11190     14.33%    100.00%
system.ruby.L1Cache_Controller.NP.Store::total        78061                      
system.ruby.L1Cache_Controller.NP.Inv    |         802     27.43%     27.43% |         759     25.96%     53.39% |         710     24.28%     77.67% |         653     22.33%    100.00%
system.ruby.L1Cache_Controller.NP.Inv::total         2924                      
system.ruby.L1Cache_Controller.I.Load    |         440     17.18%     17.18% |         944     36.86%     54.04% |         263     10.27%     64.31% |         914     35.69%    100.00%
system.ruby.L1Cache_Controller.I.Load::total         2561                      
system.ruby.L1Cache_Controller.I.Store   |         107     28.61%     28.61% |          90     24.06%     52.67% |          98     26.20%     78.88% |          79     21.12%    100.00%
system.ruby.L1Cache_Controller.I.Store::total          374                      
system.ruby.L1Cache_Controller.I.L1_Replacement |        2610     29.54%     29.54% |        2379     26.93%     56.47% |        2085     23.60%     80.07% |        1761     19.93%    100.00%
system.ruby.L1Cache_Controller.I.L1_Replacement::total         8835                      
system.ruby.L1Cache_Controller.S.Load    |      154997      0.94%      0.94% |       56270      0.34%      1.28% |    16268539     98.23%     99.50% |       82125      0.50%    100.00%
system.ruby.L1Cache_Controller.S.Load::total     16561931                      
system.ruby.L1Cache_Controller.S.Ifetch  |    21672939      5.38%      5.38% |     1822248      0.45%      5.83% |   375475161     93.19%     99.02% |     3962856      0.98%    100.00%
system.ruby.L1Cache_Controller.S.Ifetch::total    402933204                      
system.ruby.L1Cache_Controller.S.Store   |        2232     36.94%     36.94% |        1129     18.68%     55.62% |        1189     19.68%     75.29% |        1493     24.71%    100.00%
system.ruby.L1Cache_Controller.S.Store::total         6043                      
system.ruby.L1Cache_Controller.S.Inv     |        2290     27.43%     27.43% |        2427     29.07%     56.50% |        1629     19.51%     76.01% |        2003     23.99%    100.00%
system.ruby.L1Cache_Controller.S.Inv::total         8349                      
system.ruby.L1Cache_Controller.S.L1_Replacement |       95274     51.58%     51.58% |       19931     10.79%     62.37% |       33212     17.98%     80.35% |       36297     19.65%    100.00%
system.ruby.L1Cache_Controller.S.L1_Replacement::total       184714                      
system.ruby.L1Cache_Controller.E.Load    |      332673      1.46%      1.46% |       83755      0.37%      1.83% |    22163202     97.38%     99.21% |      180097      0.79%    100.00%
system.ruby.L1Cache_Controller.E.Load::total     22759727                      
system.ruby.L1Cache_Controller.E.Store   |        6527     31.41%     31.41% |        2812     13.53%     44.94% |        3435     16.53%     61.47% |        8007     38.53%    100.00%
system.ruby.L1Cache_Controller.E.Store::total        20781                      
system.ruby.L1Cache_Controller.E.Inv     |           4     11.43%     11.43% |           8     22.86%     34.29% |          10     28.57%     62.86% |          13     37.14%    100.00%
system.ruby.L1Cache_Controller.E.Inv::total           35                      
system.ruby.L1Cache_Controller.E.L1_Replacement |       14717      6.83%      6.83% |        6959      3.23%     10.05% |      182124     84.48%     94.53% |       11785      5.47%    100.00%
system.ruby.L1Cache_Controller.E.L1_Replacement::total       215585                      
system.ruby.L1Cache_Controller.E.Fwd_GETX |         680     48.40%     48.40% |         182     12.95%     61.35% |         139      9.89%     71.25% |         404     28.75%    100.00%
system.ruby.L1Cache_Controller.E.Fwd_GETX::total         1405                      
system.ruby.L1Cache_Controller.E.Fwd_GETS |        1280     40.14%     40.14% |         716     22.45%     62.59% |         553     17.34%     79.93% |         640     20.07%    100.00%
system.ruby.L1Cache_Controller.E.Fwd_GETS::total         3189                      
system.ruby.L1Cache_Controller.M.Load    |     3351828     11.81%     11.81% |      225195      0.79%     12.61% |    24372024     85.91%     98.51% |      421822      1.49%    100.00%
system.ruby.L1Cache_Controller.M.Load::total     28370869                      
system.ruby.L1Cache_Controller.M.Store   |     2782691     11.20%     11.20% |      273719      1.10%     12.31% |    21233784     85.50%     97.80% |      545193      2.20%    100.00%
system.ruby.L1Cache_Controller.M.Store::total     24835387                      
system.ruby.L1Cache_Controller.M.Inv     |           6      7.14%      7.14% |          26     30.95%     38.10% |          23     27.38%     65.48% |          29     34.52%    100.00%
system.ruby.L1Cache_Controller.M.Inv::total           84                      
system.ruby.L1Cache_Controller.M.L1_Replacement |       25282     25.85%     25.85% |       11147     11.40%     37.25% |       42263     43.22%     80.47% |       19095     19.53%    100.00%
system.ruby.L1Cache_Controller.M.L1_Replacement::total        97787                      
system.ruby.L1Cache_Controller.M.Fwd_GETX |         444     22.18%     22.18% |         557     27.82%     50.00% |         622     31.07%     81.07% |         379     18.93%    100.00%
system.ruby.L1Cache_Controller.M.Fwd_GETX::total         2002                      
system.ruby.L1Cache_Controller.M.Fwd_GETS |        1954     38.85%     38.85% |        1028     20.44%     59.30% |        1110     22.07%     81.37% |         937     18.63%    100.00%
system.ruby.L1Cache_Controller.M.Fwd_GETS::total         5029                      
system.ruby.L1Cache_Controller.IS.Data_Exclusive |       22907      9.50%      9.50% |       11001      4.56%     14.07% |      186353     77.32%     91.39% |       20757      8.61%    100.00%
system.ruby.L1Cache_Controller.IS.Data_Exclusive::total       241018                      
system.ruby.L1Cache_Controller.IS.DataS_fromL1 |        2446     29.76%     29.76% |        1958     23.83%     53.59% |        1476     17.96%     71.55% |        2338     28.45%    100.00%
system.ruby.L1Cache_Controller.IS.DataS_fromL1::total         8218                      
system.ruby.L1Cache_Controller.IS.Data_all_Acks |       94268     51.54%     51.54% |       19822     10.84%     62.38% |       33017     18.05%     80.43% |       35783     19.57%    100.00%
system.ruby.L1Cache_Controller.IS.Data_all_Acks::total       182890                      
system.ruby.L1Cache_Controller.IM.Data   |         479     39.26%     39.26% |         219     17.95%     57.21% |         307     25.16%     82.38% |         215     17.62%    100.00%
system.ruby.L1Cache_Controller.IM.Data::total         1220                      
system.ruby.L1Cache_Controller.IM.Data_all_Acks |       18331     23.74%     23.74% |        8939     11.58%     35.32% |       38892     50.37%     85.68% |       11054     14.32%    100.00%
system.ruby.L1Cache_Controller.IM.Data_all_Acks::total        77216                      
system.ruby.L1Cache_Controller.SM.Inv    |           1    100.00%    100.00% |           0      0.00%    100.00% |           0      0.00%    100.00% |           0      0.00%    100.00%
system.ruby.L1Cache_Controller.SM.Inv::total            1                      
system.ruby.L1Cache_Controller.SM.Ack    |        3872     41.79%     41.79% |        1452     15.67%     57.46% |        1805     19.48%     76.94% |        2137     23.06%    100.00%
system.ruby.L1Cache_Controller.SM.Ack::total         9266                      
system.ruby.L1Cache_Controller.SM.Ack_all |        2710     37.32%     37.32% |        1348     18.56%     55.88% |        1496     20.60%     76.48% |        1708     23.52%    100.00%
system.ruby.L1Cache_Controller.SM.Ack_all::total         7262                      
system.ruby.L1Cache_Controller.M_I.WB_Ack |       39999     12.76%     12.76% |       18106      5.78%     18.54% |      224387     71.60%     90.15% |       30880      9.85%    100.00%
system.ruby.L1Cache_Controller.M_I.WB_Ack::total       313372                      
system.ruby.L2Cache_Controller.L1_GET_INSTR       157892      0.00%      0.00%
system.ruby.L2Cache_Controller.L1_GETS         274278      0.00%      0.00%
system.ruby.L2Cache_Controller.L1_GETX          78440      0.00%      0.00%
system.ruby.L2Cache_Controller.L1_UPGRADE         6043      0.00%      0.00%
system.ruby.L2Cache_Controller.L1_PUTX         313372      0.00%      0.00%
system.ruby.L2Cache_Controller.L2_Replacement         1574      0.00%      0.00%
system.ruby.L2Cache_Controller.L2_Replacement_clean         1003      0.00%      0.00%
system.ruby.L2Cache_Controller.Mem_Data         32924      0.00%      0.00%
system.ruby.L2Cache_Controller.Mem_Ack           2647      0.00%      0.00%
system.ruby.L2Cache_Controller.WB_Data           5113      0.00%      0.00%
system.ruby.L2Cache_Controller.WB_Data_clean         3189      0.00%      0.00%
system.ruby.L2Cache_Controller.Ack                358      0.00%      0.00%
system.ruby.L2Cache_Controller.Ack_all            465      0.00%      0.00%
system.ruby.L2Cache_Controller.Unblock           8218      0.00%      0.00%
system.ruby.L2Cache_Controller.Exclusive_Unblock       325496      0.00%      0.00%
system.ruby.L2Cache_Controller.MEM_Inv            140      0.00%      0.00%
system.ruby.L2Cache_Controller.NP.L1_GET_INSTR         4353      0.00%      0.00%
system.ruby.L2Cache_Controller.NP.L1_GETS        15174      0.00%      0.00%
system.ruby.L2Cache_Controller.NP.L1_GETX        13397      0.00%      0.00%
system.ruby.L2Cache_Controller.SS.L1_GET_INSTR       153535      0.00%      0.00%
system.ruby.L2Cache_Controller.SS.L1_GETS        24998      0.00%      0.00%
system.ruby.L2Cache_Controller.SS.L1_GETX         1220      0.00%      0.00%
system.ruby.L2Cache_Controller.SS.L1_UPGRADE         6042      0.00%      0.00%
system.ruby.L2Cache_Controller.SS.L2_Replacement           60      0.00%      0.00%
system.ruby.L2Cache_Controller.SS.L2_Replacement_clean          370      0.00%      0.00%
system.ruby.L2Cache_Controller.M.L1_GET_INSTR            4      0.00%      0.00%
system.ruby.L2Cache_Controller.M.L1_GETS       225844      0.00%      0.00%
system.ruby.L2Cache_Controller.M.L1_GETX        60412      0.00%      0.00%
system.ruby.L2Cache_Controller.M.L2_Replacement         1456      0.00%      0.00%
system.ruby.L2Cache_Controller.M.L2_Replacement_clean          579      0.00%      0.00%
system.ruby.L2Cache_Controller.M.MEM_Inv           63      0.00%      0.00%
system.ruby.L2Cache_Controller.MT.L1_GETS         8218      0.00%      0.00%
system.ruby.L2Cache_Controller.MT.L1_GETX         3407      0.00%      0.00%
system.ruby.L2Cache_Controller.MT.L1_PUTX       313372      0.00%      0.00%
system.ruby.L2Cache_Controller.MT.L2_Replacement           58      0.00%      0.00%
system.ruby.L2Cache_Controller.MT.L2_Replacement_clean           54      0.00%      0.00%
system.ruby.L2Cache_Controller.MT.MEM_Inv            7      0.00%      0.00%
system.ruby.L2Cache_Controller.M_I.Mem_Ack         2647      0.00%      0.00%
system.ruby.L2Cache_Controller.M_I.MEM_Inv           63      0.00%      0.00%
system.ruby.L2Cache_Controller.MT_I.WB_Data           58      0.00%      0.00%
system.ruby.L2Cache_Controller.MT_I.Ack_all            7      0.00%      0.00%
system.ruby.L2Cache_Controller.MT_I.MEM_Inv            7      0.00%      0.00%
system.ruby.L2Cache_Controller.MCT_I.WB_Data           26      0.00%      0.00%
system.ruby.L2Cache_Controller.MCT_I.Ack_all           28      0.00%      0.00%
system.ruby.L2Cache_Controller.I_I.Ack            294      0.00%      0.00%
system.ruby.L2Cache_Controller.I_I.Ack_all          370      0.00%      0.00%
system.ruby.L2Cache_Controller.S_I.Ack             64      0.00%      0.00%
system.ruby.L2Cache_Controller.S_I.Ack_all           60      0.00%      0.00%
system.ruby.L2Cache_Controller.ISS.Mem_Data        15174      0.00%      0.00%
system.ruby.L2Cache_Controller.IS.Mem_Data         4353      0.00%      0.00%
system.ruby.L2Cache_Controller.IM.Mem_Data        13397      0.00%      0.00%
system.ruby.L2Cache_Controller.SS_MB.L1_GETS           31      0.00%      0.00%
system.ruby.L2Cache_Controller.SS_MB.L1_UPGRADE            1      0.00%      0.00%
system.ruby.L2Cache_Controller.SS_MB.Exclusive_Unblock         7262      0.00%      0.00%
system.ruby.L2Cache_Controller.MT_MB.L1_GETS           11      0.00%      0.00%
system.ruby.L2Cache_Controller.MT_MB.L1_GETX            3      0.00%      0.00%
system.ruby.L2Cache_Controller.MT_MB.Exclusive_Unblock       318234      0.00%      0.00%
system.ruby.L2Cache_Controller.MT_IIB.L1_GETS            2      0.00%      0.00%
system.ruby.L2Cache_Controller.MT_IIB.L1_GETX            1      0.00%      0.00%
system.ruby.L2Cache_Controller.MT_IIB.WB_Data         5025      0.00%      0.00%
system.ruby.L2Cache_Controller.MT_IIB.WB_Data_clean         3178      0.00%      0.00%
system.ruby.L2Cache_Controller.MT_IIB.Unblock           15      0.00%      0.00%
system.ruby.L2Cache_Controller.MT_IB.WB_Data            4      0.00%      0.00%
system.ruby.L2Cache_Controller.MT_IB.WB_Data_clean           11      0.00%      0.00%
system.ruby.L2Cache_Controller.MT_SB.Unblock         8203      0.00%      0.00%

---------- End Simulation Statistics   ----------
