
---------- Begin Simulation Statistics ----------
sim_seconds                                  0.509525                       # Number of seconds simulated
sim_ticks                                509524620500                       # Number of ticks simulated
final_tick                               52825739692001                       # Number of ticks from beginning of simulation (restored from checkpoints and never reset)
sim_freq                                 1000000000000                       # Frequency of simulated ticks
host_inst_rate                                 137613                       # Simulator instruction rate (inst/s)
host_op_rate                                   248388                       # Simulator op (including micro ops) rate (op/s)
host_tick_rate                              260592685                       # Simulator tick rate (ticks/s)
host_mem_usage                                1834820                       # Number of bytes of host memory used
host_seconds                                  1955.25                       # Real time elapsed on the host
sim_insts                                   269068181                       # Number of instructions simulated
sim_ops                                     485662190                       # Number of ops (including micro ops) simulated
system.voltage_domain.voltage                       1                       # Voltage in Volts
system.clk_domain.clock                          1000                       # Clock period in ticks
system.mem_ctrls.bytes_read::ruby.dir_cntrl0       501632                       # Number of bytes read from this memory
system.mem_ctrls.bytes_read::total             501632                       # Number of bytes read from this memory
system.mem_ctrls.bytes_written::ruby.dir_cntrl0       246528                       # Number of bytes written to this memory
system.mem_ctrls.bytes_written::total          246528                       # Number of bytes written to this memory
system.mem_ctrls.num_reads::ruby.dir_cntrl0         7838                       # Number of read requests responded to by this memory
system.mem_ctrls.num_reads::total                7838                       # Number of read requests responded to by this memory
system.mem_ctrls.num_writes::ruby.dir_cntrl0         3852                       # Number of write requests responded to by this memory
system.mem_ctrls.num_writes::total               3852                       # Number of write requests responded to by this memory
system.mem_ctrls.bw_read::ruby.dir_cntrl0       984510                       # Total read bandwidth from this memory (bytes/s)
system.mem_ctrls.bw_read::total                984510                       # Total read bandwidth from this memory (bytes/s)
system.mem_ctrls.bw_write::ruby.dir_cntrl0       483839                       # Write bandwidth from this memory (bytes/s)
system.mem_ctrls.bw_write::total               483839                       # Write bandwidth from this memory (bytes/s)
system.mem_ctrls.bw_total::ruby.dir_cntrl0      1468349                       # Total bandwidth to/from this memory (bytes/s)
system.mem_ctrls.bw_total::total              1468349                       # Total bandwidth to/from this memory (bytes/s)
system.mem_ctrls.readReqs                        7838                       # Number of read requests accepted
system.mem_ctrls.writeReqs                       3852                       # Number of write requests accepted
system.mem_ctrls.readBursts                      7838                       # Number of DRAM read bursts, including those serviced by the write queue
system.mem_ctrls.writeBursts                     3852                       # Number of DRAM write bursts, including those merged in the write queue
system.mem_ctrls.bytesReadDRAM                 498112                       # Total number of bytes read from DRAM
system.mem_ctrls.bytesReadWrQ                    3520                       # Total number of bytes read from write queue
system.mem_ctrls.bytesWritten                  246912                       # Total number of bytes written to DRAM
system.mem_ctrls.bytesReadSys                  501632                       # Total read bytes from the system interface side
system.mem_ctrls.bytesWrittenSys               246528                       # Total written bytes from the system interface side
system.mem_ctrls.servicedByWrQ                     55                       # Number of DRAM read bursts serviced by the write queue
system.mem_ctrls.mergedWrBursts                     3                       # Number of DRAM write bursts merged with an existing one
system.mem_ctrls.neitherReadNorWriteReqs            0                       # Number of requests that are neither read nor write
system.mem_ctrls.perBankRdBursts::0               619                       # Per bank write bursts
system.mem_ctrls.perBankRdBursts::1               543                       # Per bank write bursts
system.mem_ctrls.perBankRdBursts::2               614                       # Per bank write bursts
system.mem_ctrls.perBankRdBursts::3               384                       # Per bank write bursts
system.mem_ctrls.perBankRdBursts::4               649                       # Per bank write bursts
system.mem_ctrls.perBankRdBursts::5               345                       # Per bank write bursts
system.mem_ctrls.perBankRdBursts::6               419                       # Per bank write bursts
system.mem_ctrls.perBankRdBursts::7               523                       # Per bank write bursts
system.mem_ctrls.perBankRdBursts::8               458                       # Per bank write bursts
system.mem_ctrls.perBankRdBursts::9               539                       # Per bank write bursts
system.mem_ctrls.perBankRdBursts::10              464                       # Per bank write bursts
system.mem_ctrls.perBankRdBursts::11              417                       # Per bank write bursts
system.mem_ctrls.perBankRdBursts::12              364                       # Per bank write bursts
system.mem_ctrls.perBankRdBursts::13              463                       # Per bank write bursts
system.mem_ctrls.perBankRdBursts::14              660                       # Per bank write bursts
system.mem_ctrls.perBankRdBursts::15              322                       # Per bank write bursts
system.mem_ctrls.perBankWrBursts::0               289                       # Per bank write bursts
system.mem_ctrls.perBankWrBursts::1               397                       # Per bank write bursts
system.mem_ctrls.perBankWrBursts::2               380                       # Per bank write bursts
system.mem_ctrls.perBankWrBursts::3               147                       # Per bank write bursts
system.mem_ctrls.perBankWrBursts::4               393                       # Per bank write bursts
system.mem_ctrls.perBankWrBursts::5               343                       # Per bank write bursts
system.mem_ctrls.perBankWrBursts::6               145                       # Per bank write bursts
system.mem_ctrls.perBankWrBursts::7               411                       # Per bank write bursts
system.mem_ctrls.perBankWrBursts::8               259                       # Per bank write bursts
system.mem_ctrls.perBankWrBursts::9               274                       # Per bank write bursts
system.mem_ctrls.perBankWrBursts::10              137                       # Per bank write bursts
system.mem_ctrls.perBankWrBursts::11               71                       # Per bank write bursts
system.mem_ctrls.perBankWrBursts::12               82                       # Per bank write bursts
system.mem_ctrls.perBankWrBursts::13              140                       # Per bank write bursts
system.mem_ctrls.perBankWrBursts::14              228                       # Per bank write bursts
system.mem_ctrls.perBankWrBursts::15              162                       # Per bank write bursts
system.mem_ctrls.numRdRetry                         0                       # Number of times read queue was full causing retry
system.mem_ctrls.numWrRetry                         0                       # Number of times write queue was full causing retry
system.mem_ctrls.totGap                  509524545500                       # Total gap between requests
system.mem_ctrls.readPktSize::0                     0                       # Read request sizes (log2)
system.mem_ctrls.readPktSize::1                     0                       # Read request sizes (log2)
system.mem_ctrls.readPktSize::2                     0                       # Read request sizes (log2)
system.mem_ctrls.readPktSize::3                     0                       # Read request sizes (log2)
system.mem_ctrls.readPktSize::4                     0                       # Read request sizes (log2)
system.mem_ctrls.readPktSize::5                     0                       # Read request sizes (log2)
system.mem_ctrls.readPktSize::6                  7838                       # Read request sizes (log2)
system.mem_ctrls.writePktSize::0                    0                       # Write request sizes (log2)
system.mem_ctrls.writePktSize::1                    0                       # Write request sizes (log2)
system.mem_ctrls.writePktSize::2                    0                       # Write request sizes (log2)
system.mem_ctrls.writePktSize::3                    0                       # Write request sizes (log2)
system.mem_ctrls.writePktSize::4                    0                       # Write request sizes (log2)
system.mem_ctrls.writePktSize::5                    0                       # Write request sizes (log2)
system.mem_ctrls.writePktSize::6                 3852                       # Write request sizes (log2)
system.mem_ctrls.rdQLenPdf::0                    7554                       # What read queue length does an incoming req see
system.mem_ctrls.rdQLenPdf::1                     228                       # What read queue length does an incoming req see
system.mem_ctrls.rdQLenPdf::2                       1                       # What read queue length does an incoming req see
system.mem_ctrls.rdQLenPdf::3                       0                       # What read queue length does an incoming req see
system.mem_ctrls.rdQLenPdf::4                       0                       # What read queue length does an incoming req see
system.mem_ctrls.rdQLenPdf::5                       0                       # What read queue length does an incoming req see
system.mem_ctrls.rdQLenPdf::6                       0                       # What read queue length does an incoming req see
system.mem_ctrls.rdQLenPdf::7                       0                       # What read queue length does an incoming req see
system.mem_ctrls.rdQLenPdf::8                       0                       # What read queue length does an incoming req see
system.mem_ctrls.rdQLenPdf::9                       0                       # What read queue length does an incoming req see
system.mem_ctrls.rdQLenPdf::10                      0                       # What read queue length does an incoming req see
system.mem_ctrls.rdQLenPdf::11                      0                       # What read queue length does an incoming req see
system.mem_ctrls.rdQLenPdf::12                      0                       # What read queue length does an incoming req see
system.mem_ctrls.rdQLenPdf::13                      0                       # What read queue length does an incoming req see
system.mem_ctrls.rdQLenPdf::14                      0                       # What read queue length does an incoming req see
system.mem_ctrls.rdQLenPdf::15                      0                       # What read queue length does an incoming req see
system.mem_ctrls.rdQLenPdf::16                      0                       # What read queue length does an incoming req see
system.mem_ctrls.rdQLenPdf::17                      0                       # What read queue length does an incoming req see
system.mem_ctrls.rdQLenPdf::18                      0                       # What read queue length does an incoming req see
system.mem_ctrls.rdQLenPdf::19                      0                       # What read queue length does an incoming req see
system.mem_ctrls.rdQLenPdf::20                      0                       # What read queue length does an incoming req see
system.mem_ctrls.rdQLenPdf::21                      0                       # What read queue length does an incoming req see
system.mem_ctrls.rdQLenPdf::22                      0                       # What read queue length does an incoming req see
system.mem_ctrls.rdQLenPdf::23                      0                       # What read queue length does an incoming req see
system.mem_ctrls.rdQLenPdf::24                      0                       # What read queue length does an incoming req see
system.mem_ctrls.rdQLenPdf::25                      0                       # What read queue length does an incoming req see
system.mem_ctrls.rdQLenPdf::26                      0                       # What read queue length does an incoming req see
system.mem_ctrls.rdQLenPdf::27                      0                       # What read queue length does an incoming req see
system.mem_ctrls.rdQLenPdf::28                      0                       # What read queue length does an incoming req see
system.mem_ctrls.rdQLenPdf::29                      0                       # What read queue length does an incoming req see
system.mem_ctrls.rdQLenPdf::30                      0                       # What read queue length does an incoming req see
system.mem_ctrls.rdQLenPdf::31                      0                       # What read queue length does an incoming req see
system.mem_ctrls.wrQLenPdf::0                       0                       # What write queue length does an incoming req see
system.mem_ctrls.wrQLenPdf::1                       0                       # What write queue length does an incoming req see
system.mem_ctrls.wrQLenPdf::2                       0                       # What write queue length does an incoming req see
system.mem_ctrls.wrQLenPdf::3                       0                       # What write queue length does an incoming req see
system.mem_ctrls.wrQLenPdf::4                       0                       # What write queue length does an incoming req see
system.mem_ctrls.wrQLenPdf::5                       0                       # What write queue length does an incoming req see
system.mem_ctrls.wrQLenPdf::6                       0                       # What write queue length does an incoming req see
system.mem_ctrls.wrQLenPdf::7                       0                       # What write queue length does an incoming req see
system.mem_ctrls.wrQLenPdf::8                       0                       # What write queue length does an incoming req see
system.mem_ctrls.wrQLenPdf::9                       0                       # What write queue length does an incoming req see
system.mem_ctrls.wrQLenPdf::10                      0                       # What write queue length does an incoming req see
system.mem_ctrls.wrQLenPdf::11                      0                       # What write queue length does an incoming req see
system.mem_ctrls.wrQLenPdf::12                      0                       # What write queue length does an incoming req see
system.mem_ctrls.wrQLenPdf::13                      0                       # What write queue length does an incoming req see
system.mem_ctrls.wrQLenPdf::14                      0                       # What write queue length does an incoming req see
system.mem_ctrls.wrQLenPdf::15                    114                       # What write queue length does an incoming req see
system.mem_ctrls.wrQLenPdf::16                    156                       # What write queue length does an incoming req see
system.mem_ctrls.wrQLenPdf::17                    207                       # What write queue length does an incoming req see
system.mem_ctrls.wrQLenPdf::18                    243                       # What write queue length does an incoming req see
system.mem_ctrls.wrQLenPdf::19                    221                       # What write queue length does an incoming req see
system.mem_ctrls.wrQLenPdf::20                    245                       # What write queue length does an incoming req see
system.mem_ctrls.wrQLenPdf::21                    251                       # What write queue length does an incoming req see
system.mem_ctrls.wrQLenPdf::22                    214                       # What write queue length does an incoming req see
system.mem_ctrls.wrQLenPdf::23                    251                       # What write queue length does an incoming req see
system.mem_ctrls.wrQLenPdf::24                    259                       # What write queue length does an incoming req see
system.mem_ctrls.wrQLenPdf::25                    213                       # What write queue length does an incoming req see
system.mem_ctrls.wrQLenPdf::26                    226                       # What write queue length does an incoming req see
system.mem_ctrls.wrQLenPdf::27                    211                       # What write queue length does an incoming req see
system.mem_ctrls.wrQLenPdf::28                    209                       # What write queue length does an incoming req see
system.mem_ctrls.wrQLenPdf::29                    194                       # What write queue length does an incoming req see
system.mem_ctrls.wrQLenPdf::30                    201                       # What write queue length does an incoming req see
system.mem_ctrls.wrQLenPdf::31                    193                       # What write queue length does an incoming req see
system.mem_ctrls.wrQLenPdf::32                    190                       # What write queue length does an incoming req see
system.mem_ctrls.wrQLenPdf::33                      7                       # What write queue length does an incoming req see
system.mem_ctrls.wrQLenPdf::34                      7                       # What write queue length does an incoming req see
system.mem_ctrls.wrQLenPdf::35                      6                       # What write queue length does an incoming req see
system.mem_ctrls.wrQLenPdf::36                      5                       # What write queue length does an incoming req see
system.mem_ctrls.wrQLenPdf::37                      6                       # What write queue length does an incoming req see
system.mem_ctrls.wrQLenPdf::38                      5                       # What write queue length does an incoming req see
system.mem_ctrls.wrQLenPdf::39                      4                       # What write queue length does an incoming req see
system.mem_ctrls.wrQLenPdf::40                      4                       # What write queue length does an incoming req see
system.mem_ctrls.wrQLenPdf::41                      3                       # What write queue length does an incoming req see
system.mem_ctrls.wrQLenPdf::42                      3                       # What write queue length does an incoming req see
system.mem_ctrls.wrQLenPdf::43                      1                       # What write queue length does an incoming req see
system.mem_ctrls.wrQLenPdf::44                      0                       # What write queue length does an incoming req see
system.mem_ctrls.wrQLenPdf::45                      0                       # What write queue length does an incoming req see
system.mem_ctrls.wrQLenPdf::46                      0                       # What write queue length does an incoming req see
system.mem_ctrls.wrQLenPdf::47                      0                       # What write queue length does an incoming req see
system.mem_ctrls.wrQLenPdf::48                      0                       # What write queue length does an incoming req see
system.mem_ctrls.wrQLenPdf::49                      0                       # What write queue length does an incoming req see
system.mem_ctrls.wrQLenPdf::50                      0                       # What write queue length does an incoming req see
system.mem_ctrls.wrQLenPdf::51                      0                       # What write queue length does an incoming req see
system.mem_ctrls.wrQLenPdf::52                      0                       # What write queue length does an incoming req see
system.mem_ctrls.wrQLenPdf::53                      0                       # What write queue length does an incoming req see
system.mem_ctrls.wrQLenPdf::54                      0                       # What write queue length does an incoming req see
system.mem_ctrls.wrQLenPdf::55                      0                       # What write queue length does an incoming req see
system.mem_ctrls.wrQLenPdf::56                      0                       # What write queue length does an incoming req see
system.mem_ctrls.wrQLenPdf::57                      0                       # What write queue length does an incoming req see
system.mem_ctrls.wrQLenPdf::58                      0                       # What write queue length does an incoming req see
system.mem_ctrls.wrQLenPdf::59                      0                       # What write queue length does an incoming req see
system.mem_ctrls.wrQLenPdf::60                      0                       # What write queue length does an incoming req see
system.mem_ctrls.wrQLenPdf::61                      0                       # What write queue length does an incoming req see
system.mem_ctrls.wrQLenPdf::62                      0                       # What write queue length does an incoming req see
system.mem_ctrls.wrQLenPdf::63                      0                       # What write queue length does an incoming req see
system.mem_ctrls.bytesPerActivate::samples         4103                       # Bytes accessed per row activation
system.mem_ctrls.bytesPerActivate::mean    181.580307                       # Bytes accessed per row activation
system.mem_ctrls.bytesPerActivate::gmean   113.161384                       # Bytes accessed per row activation
system.mem_ctrls.bytesPerActivate::stdev   249.891519                       # Bytes accessed per row activation
system.mem_ctrls.bytesPerActivate::0-127         2271     55.35%     55.35% # Bytes accessed per row activation
system.mem_ctrls.bytesPerActivate::128-255         1175     28.64%     83.99% # Bytes accessed per row activation
system.mem_ctrls.bytesPerActivate::256-383          182      4.44%     88.42% # Bytes accessed per row activation
system.mem_ctrls.bytesPerActivate::384-511           85      2.07%     90.49% # Bytes accessed per row activation
system.mem_ctrls.bytesPerActivate::512-639           58      1.41%     91.91% # Bytes accessed per row activation
system.mem_ctrls.bytesPerActivate::640-767           34      0.83%     92.74% # Bytes accessed per row activation
system.mem_ctrls.bytesPerActivate::768-895           24      0.58%     93.32% # Bytes accessed per row activation
system.mem_ctrls.bytesPerActivate::896-1023           24      0.58%     93.91% # Bytes accessed per row activation
system.mem_ctrls.bytesPerActivate::1024-1151          250      6.09%    100.00% # Bytes accessed per row activation
system.mem_ctrls.bytesPerActivate::total         4103                       # Bytes accessed per row activation
system.mem_ctrls.rdPerTurnAround::samples          185                       # Reads before turning the bus around for writes
system.mem_ctrls.rdPerTurnAround::mean     123.972973                       # Reads before turning the bus around for writes
system.mem_ctrls.rdPerTurnAround::stdev   1115.426013                       # Reads before turning the bus around for writes
system.mem_ctrls.rdPerTurnAround::0-511           181     97.84%     97.84% # Reads before turning the bus around for writes
system.mem_ctrls.rdPerTurnAround::512-1023            3      1.62%     99.46% # Reads before turning the bus around for writes
system.mem_ctrls.rdPerTurnAround::14848-15359            1      0.54%    100.00% # Reads before turning the bus around for writes
system.mem_ctrls.rdPerTurnAround::total           185                       # Reads before turning the bus around for writes
system.mem_ctrls.wrPerTurnAround::samples          185                       # Writes before turning the bus around for reads
system.mem_ctrls.wrPerTurnAround::mean      20.854054                       # Writes before turning the bus around for reads
system.mem_ctrls.wrPerTurnAround::gmean     20.319139                       # Writes before turning the bus around for reads
system.mem_ctrls.wrPerTurnAround::stdev      5.205066                       # Writes before turning the bus around for reads
system.mem_ctrls.wrPerTurnAround::16               66     35.68%     35.68% # Writes before turning the bus around for reads
system.mem_ctrls.wrPerTurnAround::17                1      0.54%     36.22% # Writes before turning the bus around for reads
system.mem_ctrls.wrPerTurnAround::18                4      2.16%     38.38% # Writes before turning the bus around for reads
system.mem_ctrls.wrPerTurnAround::19                1      0.54%     38.92% # Writes before turning the bus around for reads
system.mem_ctrls.wrPerTurnAround::20                5      2.70%     41.62% # Writes before turning the bus around for reads
system.mem_ctrls.wrPerTurnAround::21               39     21.08%     62.70% # Writes before turning the bus around for reads
system.mem_ctrls.wrPerTurnAround::22               10      5.41%     68.11% # Writes before turning the bus around for reads
system.mem_ctrls.wrPerTurnAround::24               35     18.92%     87.03% # Writes before turning the bus around for reads
system.mem_ctrls.wrPerTurnAround::25                8      4.32%     91.35% # Writes before turning the bus around for reads
system.mem_ctrls.wrPerTurnAround::26                1      0.54%     91.89% # Writes before turning the bus around for reads
system.mem_ctrls.wrPerTurnAround::27                1      0.54%     92.43% # Writes before turning the bus around for reads
system.mem_ctrls.wrPerTurnAround::28                9      4.86%     97.30% # Writes before turning the bus around for reads
system.mem_ctrls.wrPerTurnAround::38                2      1.08%     98.38% # Writes before turning the bus around for reads
system.mem_ctrls.wrPerTurnAround::40                1      0.54%     98.92% # Writes before turning the bus around for reads
system.mem_ctrls.wrPerTurnAround::43                1      0.54%     99.46% # Writes before turning the bus around for reads
system.mem_ctrls.wrPerTurnAround::51                1      0.54%    100.00% # Writes before turning the bus around for reads
system.mem_ctrls.wrPerTurnAround::total           185                       # Writes before turning the bus around for reads
system.mem_ctrls.totQLat                     90340498                       # Total ticks spent queuing
system.mem_ctrls.totMemAccLat               236271748                       # Total ticks spent from burst creation until serviced by the DRAM
system.mem_ctrls.totBusLat                   38915000                       # Total ticks spent in databus transfers
system.mem_ctrls.avgQLat                     11607.41                       # Average queueing delay per DRAM burst
system.mem_ctrls.avgBusLat                    5000.00                       # Average bus latency per DRAM burst
system.mem_ctrls.avgMemAccLat                30357.41                       # Average memory access latency per DRAM burst
system.mem_ctrls.avgRdBW                         0.98                       # Average DRAM read bandwidth in MiByte/s
system.mem_ctrls.avgWrBW                         0.48                       # Average achieved write bandwidth in MiByte/s
system.mem_ctrls.avgRdBWSys                      0.98                       # Average system read bandwidth in MiByte/s
system.mem_ctrls.avgWrBWSys                      0.48                       # Average system write bandwidth in MiByte/s
system.mem_ctrls.peakBW                      12800.00                       # Theoretical peak bandwidth in MiByte/s
system.mem_ctrls.busUtil                         0.01                       # Data bus utilization in percentage
system.mem_ctrls.busUtilRead                     0.01                       # Data bus utilization in percentage for reads
system.mem_ctrls.busUtilWrite                    0.00                       # Data bus utilization in percentage for writes
system.mem_ctrls.avgRdQLen                       1.00                       # Average read queue length when enqueuing
system.mem_ctrls.avgWrQLen                      24.49                       # Average write queue length when enqueuing
system.mem_ctrls.readRowHits                     4431                       # Number of row buffer hits during reads
system.mem_ctrls.writeRowHits                    3107                       # Number of row buffer hits during writes
system.mem_ctrls.readRowHitRate                 56.93                       # Row buffer hit rate for reads
system.mem_ctrls.writeRowHitRate                80.72                       # Row buffer hit rate for writes
system.mem_ctrls.avgGap                   43586359.75                       # Average gap between requests
system.mem_ctrls.pageHitRate                    64.80                       # Row buffer hit rate, read and write combined
system.mem_ctrls_0.actEnergy                 31812480                       # Energy for activate commands per rank (pJ)
system.mem_ctrls_0.preEnergy                 17358000                       # Energy for precharge commands per rank (pJ)
system.mem_ctrls_0.readEnergy                94341000                       # Energy for read commands per rank (pJ)
system.mem_ctrls_0.writeEnergy               16232400                       # Energy for write commands per rank (pJ)
system.mem_ctrls_0.refreshEnergy          33518172480                       # Energy for refresh commands per rank (pJ)
system.mem_ctrls_0.actBackEnergy          14632626465                       # Energy for active background per rank (pJ)
system.mem_ctrls_0.preBackEnergy         295070209500                       # Energy for precharge background per rank (pJ)
system.mem_ctrls_0.totalEnergy           343380752325                       # Total energy per rank (pJ)
system.mem_ctrls_0.averagePower            669.128091                       # Core power per rank (mW)
system.mem_ctrls_0.memoryStateTime::IDLE 489458455250                       # Time in different power states
system.mem_ctrls_0.memoryStateTime::REF   17014140000                       # Time in different power states
system.mem_ctrls_0.memoryStateTime::PRE_PDN            0                       # Time in different power states
system.mem_ctrls_0.memoryStateTime::ACT    3051819250                       # Time in different power states
system.mem_ctrls_0.memoryStateTime::ACT_PDN            0                       # Time in different power states
system.mem_ctrls_1.actEnergy                 27276480                       # Energy for activate commands per rank (pJ)
system.mem_ctrls_1.preEnergy                 14883000                       # Energy for precharge commands per rank (pJ)
system.mem_ctrls_1.readEnergy                84559800                       # Energy for read commands per rank (pJ)
system.mem_ctrls_1.writeEnergy                8767440                       # Energy for write commands per rank (pJ)
system.mem_ctrls_1.refreshEnergy          33518172480                       # Energy for refresh commands per rank (pJ)
system.mem_ctrls_1.actBackEnergy          14257319085                       # Energy for active background per rank (pJ)
system.mem_ctrls_1.preBackEnergy         295399426500                       # Energy for precharge background per rank (pJ)
system.mem_ctrls_1.totalEnergy           343310404785                       # Total energy per rank (pJ)
system.mem_ctrls_1.averagePower            668.991008                       # Core power per rank (mW)
system.mem_ctrls_1.memoryStateTime::IDLE 489846421500                       # Time in different power states
system.mem_ctrls_1.memoryStateTime::REF   17014140000                       # Time in different power states
system.mem_ctrls_1.memoryStateTime::PRE_PDN            0                       # Time in different power states
system.mem_ctrls_1.memoryStateTime::ACT    2663852250                       # Time in different power states
system.mem_ctrls_1.memoryStateTime::ACT_PDN            0                       # Time in different power states
system.cpu_voltage_domain.voltage                   1                       # Voltage in Volts
system.cpu_clk_domain.clock                       500                       # Clock period in ticks
system.cpu0.apic_clk_domain.clock                8000                       # Clock period in ticks
system.cpu0.numCycles                      1015900375                       # number of cpu cycles simulated
system.cpu0.numWorkItemsStarted                     0                       # number of work items this cpu started
system.cpu0.numWorkItemsCompleted                   0                       # number of work items this cpu completed
system.cpu0.kern.inst.arm                           0                       # number of arm instructions executed
system.cpu0.kern.inst.quiesce                       0                       # number of quiesce instructions executed
system.cpu0.committedInsts                     431990                       # Number of instructions committed
system.cpu0.committedOps                       930030                       # Number of ops (including micro ops) committed
system.cpu0.num_int_alu_accesses               912104                       # Number of integer alu accesses
system.cpu0.num_fp_alu_accesses                    33                       # Number of float alu accesses
system.cpu0.num_func_calls                      27579                       # number of times a function call or return occured
system.cpu0.num_conditional_control_insts        62741                       # number of instructions that are conditional controls
system.cpu0.num_int_insts                      912104                       # number of integer instructions
system.cpu0.num_fp_insts                           33                       # number of float instructions
system.cpu0.num_int_register_reads            1839216                       # number of times the integer registers were read
system.cpu0.num_int_register_writes            750862                       # number of times the integer registers were written
system.cpu0.num_fp_register_reads                  14                       # number of times the floating registers were read
system.cpu0.num_fp_register_writes                 25                       # number of times the floating registers were written
system.cpu0.num_cc_register_reads              509115                       # number of times the CC registers were read
system.cpu0.num_cc_register_writes             282192                       # number of times the CC registers were written
system.cpu0.num_mem_refs                       216942                       # number of memory refs
system.cpu0.num_load_insts                     133964                       # Number of load instructions
system.cpu0.num_store_insts                     82978                       # Number of store instructions
system.cpu0.num_idle_cycles              1013652417.726763                       # Number of idle cycles
system.cpu0.num_busy_cycles              2247957.273237                       # Number of busy cycles
system.cpu0.not_idle_fraction                0.002213                       # Percentage of non-idle cycles
system.cpu0.idle_fraction                    0.997787                       # Percentage of idle cycles
system.cpu0.Branches                            98599                       # Number of branches fetched
system.cpu0.op_class::No_OpClass                13186      1.42%      1.42% # Class of executed instruction
system.cpu0.op_class::IntAlu                   693950     74.62%     76.03% # Class of executed instruction
system.cpu0.op_class::IntMult                    1785      0.19%     76.23% # Class of executed instruction
system.cpu0.op_class::IntDiv                     4153      0.45%     76.67% # Class of executed instruction
system.cpu0.op_class::FloatAdd                     17      0.00%     76.67% # Class of executed instruction
system.cpu0.op_class::FloatCmp                      0      0.00%     76.67% # Class of executed instruction
system.cpu0.op_class::FloatCvt                      0      0.00%     76.67% # Class of executed instruction
system.cpu0.op_class::FloatMult                     0      0.00%     76.67% # Class of executed instruction
system.cpu0.op_class::FloatDiv                      0      0.00%     76.67% # Class of executed instruction
system.cpu0.op_class::FloatSqrt                     0      0.00%     76.67% # Class of executed instruction
system.cpu0.op_class::SimdAdd                       0      0.00%     76.67% # Class of executed instruction
system.cpu0.op_class::SimdAddAcc                    0      0.00%     76.67% # Class of executed instruction
system.cpu0.op_class::SimdAlu                       0      0.00%     76.67% # Class of executed instruction
system.cpu0.op_class::SimdCmp                       0      0.00%     76.67% # Class of executed instruction
system.cpu0.op_class::SimdCvt                       0      0.00%     76.67% # Class of executed instruction
system.cpu0.op_class::SimdMisc                      0      0.00%     76.67% # Class of executed instruction
system.cpu0.op_class::SimdMult                      0      0.00%     76.67% # Class of executed instruction
system.cpu0.op_class::SimdMultAcc                   0      0.00%     76.67% # Class of executed instruction
system.cpu0.op_class::SimdShift                     0      0.00%     76.67% # Class of executed instruction
system.cpu0.op_class::SimdShiftAcc                  0      0.00%     76.67% # Class of executed instruction
system.cpu0.op_class::SimdSqrt                      0      0.00%     76.67% # Class of executed instruction
system.cpu0.op_class::SimdFloatAdd                  0      0.00%     76.67% # Class of executed instruction
system.cpu0.op_class::SimdFloatAlu                  0      0.00%     76.67% # Class of executed instruction
system.cpu0.op_class::SimdFloatCmp                  0      0.00%     76.67% # Class of executed instruction
system.cpu0.op_class::SimdFloatCvt                  0      0.00%     76.67% # Class of executed instruction
system.cpu0.op_class::SimdFloatDiv                  0      0.00%     76.67% # Class of executed instruction
system.cpu0.op_class::SimdFloatMisc                 0      0.00%     76.67% # Class of executed instruction
system.cpu0.op_class::SimdFloatMult                 0      0.00%     76.67% # Class of executed instruction
system.cpu0.op_class::SimdFloatMultAcc              0      0.00%     76.67% # Class of executed instruction
system.cpu0.op_class::SimdFloatSqrt                 0      0.00%     76.67% # Class of executed instruction
system.cpu0.op_class::MemRead                  133964     14.40%     91.08% # Class of executed instruction
system.cpu0.op_class::MemWrite                  82978      8.92%    100.00% # Class of executed instruction
system.cpu0.op_class::IprAccess                     0      0.00%    100.00% # Class of executed instruction
system.cpu0.op_class::InstPrefetch                  0      0.00%    100.00% # Class of executed instruction
system.cpu0.op_class::total                    930033                       # Class of executed instruction
system.cpu1.apic_clk_domain.clock                8000                       # Clock period in ticks
system.cpu1.numCycles                      1016987359                       # number of cpu cycles simulated
system.cpu1.numWorkItemsStarted                     0                       # number of work items this cpu started
system.cpu1.numWorkItemsCompleted                   0                       # number of work items this cpu completed
system.cpu1.kern.inst.arm                           0                       # number of arm instructions executed
system.cpu1.kern.inst.quiesce                       0                       # number of quiesce instructions executed
system.cpu1.committedInsts                    1092451                       # Number of instructions committed
system.cpu1.committedOps                      2117569                       # Number of ops (including micro ops) committed
system.cpu1.num_int_alu_accesses              2084762                       # Number of integer alu accesses
system.cpu1.num_fp_alu_accesses                  2182                       # Number of float alu accesses
system.cpu1.num_func_calls                      45209                       # number of times a function call or return occured
system.cpu1.num_conditional_control_insts       171911                       # number of instructions that are conditional controls
system.cpu1.num_int_insts                     2084762                       # number of integer instructions
system.cpu1.num_fp_insts                         2182                       # number of float instructions
system.cpu1.num_int_register_reads            4238675                       # number of times the integer registers were read
system.cpu1.num_int_register_writes           1696631                       # number of times the integer registers were written
system.cpu1.num_fp_register_reads                3630                       # number of times the floating registers were read
system.cpu1.num_fp_register_writes               1789                       # number of times the floating registers were written
system.cpu1.num_cc_register_reads             1219932                       # number of times the CC registers were read
system.cpu1.num_cc_register_writes             703962                       # number of times the CC registers were written
system.cpu1.num_mem_refs                       483763                       # number of memory refs
system.cpu1.num_load_insts                     297177                       # Number of load instructions
system.cpu1.num_store_insts                    186586                       # Number of store instructions
system.cpu1.num_idle_cycles              1011798428.255620                       # Number of idle cycles
system.cpu1.num_busy_cycles              5188930.744380                       # Number of busy cycles
system.cpu1.not_idle_fraction                0.005102                       # Percentage of non-idle cycles
system.cpu1.idle_fraction                    0.994898                       # Percentage of idle cycles
system.cpu1.Branches                           234178                       # Number of branches fetched
system.cpu1.op_class::No_OpClass                21581      1.02%      1.02% # Class of executed instruction
system.cpu1.op_class::IntAlu                  1601597     75.63%     76.65% # Class of executed instruction
system.cpu1.op_class::IntMult                    2707      0.13%     76.78% # Class of executed instruction
system.cpu1.op_class::IntDiv                     6430      0.30%     77.08% # Class of executed instruction
system.cpu1.op_class::FloatAdd                   1586      0.07%     77.16% # Class of executed instruction
system.cpu1.op_class::FloatCmp                      0      0.00%     77.16% # Class of executed instruction
system.cpu1.op_class::FloatCvt                      0      0.00%     77.16% # Class of executed instruction
system.cpu1.op_class::FloatMult                     0      0.00%     77.16% # Class of executed instruction
system.cpu1.op_class::FloatDiv                      0      0.00%     77.16% # Class of executed instruction
system.cpu1.op_class::FloatSqrt                     0      0.00%     77.16% # Class of executed instruction
system.cpu1.op_class::SimdAdd                       0      0.00%     77.16% # Class of executed instruction
system.cpu1.op_class::SimdAddAcc                    0      0.00%     77.16% # Class of executed instruction
system.cpu1.op_class::SimdAlu                       0      0.00%     77.16% # Class of executed instruction
system.cpu1.op_class::SimdCmp                       0      0.00%     77.16% # Class of executed instruction
system.cpu1.op_class::SimdCvt                       0      0.00%     77.16% # Class of executed instruction
system.cpu1.op_class::SimdMisc                      0      0.00%     77.16% # Class of executed instruction
system.cpu1.op_class::SimdMult                      0      0.00%     77.16% # Class of executed instruction
system.cpu1.op_class::SimdMultAcc                   0      0.00%     77.16% # Class of executed instruction
system.cpu1.op_class::SimdShift                     0      0.00%     77.16% # Class of executed instruction
system.cpu1.op_class::SimdShiftAcc                  0      0.00%     77.16% # Class of executed instruction
system.cpu1.op_class::SimdSqrt                      0      0.00%     77.16% # Class of executed instruction
system.cpu1.op_class::SimdFloatAdd                  0      0.00%     77.16% # Class of executed instruction
system.cpu1.op_class::SimdFloatAlu                  0      0.00%     77.16% # Class of executed instruction
system.cpu1.op_class::SimdFloatCmp                  0      0.00%     77.16% # Class of executed instruction
system.cpu1.op_class::SimdFloatCvt                  0      0.00%     77.16% # Class of executed instruction
system.cpu1.op_class::SimdFloatDiv                  0      0.00%     77.16% # Class of executed instruction
system.cpu1.op_class::SimdFloatMisc                 0      0.00%     77.16% # Class of executed instruction
system.cpu1.op_class::SimdFloatMult                 0      0.00%     77.16% # Class of executed instruction
system.cpu1.op_class::SimdFloatMultAcc              0      0.00%     77.16% # Class of executed instruction
system.cpu1.op_class::SimdFloatSqrt                 0      0.00%     77.16% # Class of executed instruction
system.cpu1.op_class::MemRead                  297177     14.03%     91.19% # Class of executed instruction
system.cpu1.op_class::MemWrite                 186586      8.81%    100.00% # Class of executed instruction
system.cpu1.op_class::IprAccess                     0      0.00%    100.00% # Class of executed instruction
system.cpu1.op_class::InstPrefetch                  0      0.00%    100.00% # Class of executed instruction
system.cpu1.op_class::total                   2117664                       # Class of executed instruction
system.cpu2.apic_clk_domain.clock                8000                       # Clock period in ticks
system.cpu2.numCycles                      1018736107                       # number of cpu cycles simulated
system.cpu2.numWorkItemsStarted                     0                       # number of work items this cpu started
system.cpu2.numWorkItemsCompleted                   0                       # number of work items this cpu completed
system.cpu2.kern.inst.arm                           0                       # number of arm instructions executed
system.cpu2.kern.inst.quiesce                       0                       # number of quiesce instructions executed
system.cpu2.committedInsts                     467059                       # Number of instructions committed
system.cpu2.committedOps                       981296                       # Number of ops (including micro ops) committed
system.cpu2.num_int_alu_accesses               960857                       # Number of integer alu accesses
system.cpu2.num_fp_alu_accesses                   154                       # Number of float alu accesses
system.cpu2.num_func_calls                      25975                       # number of times a function call or return occured
system.cpu2.num_conditional_control_insts        72260                       # number of instructions that are conditional controls
system.cpu2.num_int_insts                      960857                       # number of integer instructions
system.cpu2.num_fp_insts                          154                       # number of float instructions
system.cpu2.num_int_register_reads            1948364                       # number of times the integer registers were read
system.cpu2.num_int_register_writes            790738                       # number of times the integer registers were written
system.cpu2.num_fp_register_reads                 285                       # number of times the floating registers were read
system.cpu2.num_fp_register_writes                124                       # number of times the floating registers were written
system.cpu2.num_cc_register_reads              559091                       # number of times the CC registers were read
system.cpu2.num_cc_register_writes             297419                       # number of times the CC registers were written
system.cpu2.num_mem_refs                       232486                       # number of memory refs
system.cpu2.num_load_insts                     142892                       # Number of load instructions
system.cpu2.num_store_insts                     89594                       # Number of store instructions
system.cpu2.num_idle_cycles              1016402736.223822                       # Number of idle cycles
system.cpu2.num_busy_cycles              2333370.776178                       # Number of busy cycles
system.cpu2.not_idle_fraction                0.002290                       # Percentage of non-idle cycles
system.cpu2.idle_fraction                    0.997710                       # Percentage of idle cycles
system.cpu2.Branches                           106936                       # Number of branches fetched
system.cpu2.op_class::No_OpClass                16241      1.66%      1.66% # Class of executed instruction
system.cpu2.op_class::IntAlu                   724836     73.86%     75.52% # Class of executed instruction
system.cpu2.op_class::IntMult                    2145      0.22%     75.74% # Class of executed instruction
system.cpu2.op_class::IntDiv                     5529      0.56%     76.30% # Class of executed instruction
system.cpu2.op_class::FloatAdd                     87      0.01%     76.31% # Class of executed instruction
system.cpu2.op_class::FloatCmp                      0      0.00%     76.31% # Class of executed instruction
system.cpu2.op_class::FloatCvt                      0      0.00%     76.31% # Class of executed instruction
system.cpu2.op_class::FloatMult                     0      0.00%     76.31% # Class of executed instruction
system.cpu2.op_class::FloatDiv                      0      0.00%     76.31% # Class of executed instruction
system.cpu2.op_class::FloatSqrt                     0      0.00%     76.31% # Class of executed instruction
system.cpu2.op_class::SimdAdd                       0      0.00%     76.31% # Class of executed instruction
system.cpu2.op_class::SimdAddAcc                    0      0.00%     76.31% # Class of executed instruction
system.cpu2.op_class::SimdAlu                       0      0.00%     76.31% # Class of executed instruction
system.cpu2.op_class::SimdCmp                       0      0.00%     76.31% # Class of executed instruction
system.cpu2.op_class::SimdCvt                       0      0.00%     76.31% # Class of executed instruction
system.cpu2.op_class::SimdMisc                      0      0.00%     76.31% # Class of executed instruction
system.cpu2.op_class::SimdMult                      0      0.00%     76.31% # Class of executed instruction
system.cpu2.op_class::SimdMultAcc                   0      0.00%     76.31% # Class of executed instruction
system.cpu2.op_class::SimdShift                     0      0.00%     76.31% # Class of executed instruction
system.cpu2.op_class::SimdShiftAcc                  0      0.00%     76.31% # Class of executed instruction
system.cpu2.op_class::SimdSqrt                      0      0.00%     76.31% # Class of executed instruction
system.cpu2.op_class::SimdFloatAdd                  0      0.00%     76.31% # Class of executed instruction
system.cpu2.op_class::SimdFloatAlu                  0      0.00%     76.31% # Class of executed instruction
system.cpu2.op_class::SimdFloatCmp                  0      0.00%     76.31% # Class of executed instruction
system.cpu2.op_class::SimdFloatCvt                  0      0.00%     76.31% # Class of executed instruction
system.cpu2.op_class::SimdFloatDiv                  0      0.00%     76.31% # Class of executed instruction
system.cpu2.op_class::SimdFloatMisc                 0      0.00%     76.31% # Class of executed instruction
system.cpu2.op_class::SimdFloatMult                 0      0.00%     76.31% # Class of executed instruction
system.cpu2.op_class::SimdFloatMultAcc              0      0.00%     76.31% # Class of executed instruction
system.cpu2.op_class::SimdFloatSqrt                 0      0.00%     76.31% # Class of executed instruction
system.cpu2.op_class::MemRead                  142892     14.56%     90.87% # Class of executed instruction
system.cpu2.op_class::MemWrite                  89594      9.13%    100.00% # Class of executed instruction
system.cpu2.op_class::IprAccess                     0      0.00%    100.00% # Class of executed instruction
system.cpu2.op_class::InstPrefetch                  0      0.00%    100.00% # Class of executed instruction
system.cpu2.op_class::total                    981324                       # Class of executed instruction
system.cpu3.apic_clk_domain.clock                8000                       # Clock period in ticks
system.cpu3.numCycles                      1021214504                       # number of cpu cycles simulated
system.cpu3.numWorkItemsStarted                     0                       # number of work items this cpu started
system.cpu3.numWorkItemsCompleted                   0                       # number of work items this cpu completed
system.cpu3.kern.inst.arm                           0                       # number of arm instructions executed
system.cpu3.kern.inst.quiesce                       0                       # number of quiesce instructions executed
system.cpu3.committedInsts                  265766810                       # Number of instructions committed
system.cpu3.committedOps                    479222576                       # Number of ops (including micro ops) committed
system.cpu3.num_int_alu_accesses            269587187                       # Number of integer alu accesses
system.cpu3.num_fp_alu_accesses             270615189                       # Number of float alu accesses
system.cpu3.num_func_calls                    9865421                       # number of times a function call or return occured
system.cpu3.num_conditional_control_insts     14999476                       # number of instructions that are conditional controls
system.cpu3.num_int_insts                   269587187                       # number of integer instructions
system.cpu3.num_fp_insts                    270615189                       # number of float instructions
system.cpu3.num_int_register_reads          512580428                       # number of times the integer registers were read
system.cpu3.num_int_register_writes         176080020                       # number of times the integer registers were written
system.cpu3.num_fp_register_reads           446719424                       # number of times the floating registers were read
system.cpu3.num_fp_register_writes          249466775                       # number of times the floating registers were written
system.cpu3.num_cc_register_reads           106916437                       # number of times the CC registers were read
system.cpu3.num_cc_register_writes           82975680                       # number of times the CC registers were written
system.cpu3.num_mem_refs                     84033545                       # number of memory refs
system.cpu3.num_load_insts                   62872668                       # Number of load instructions
system.cpu3.num_store_insts                  21160877                       # Number of store instructions
system.cpu3.num_idle_cycles              4303875.432736                       # Number of idle cycles
system.cpu3.num_busy_cycles              1016910628.567264                       # Number of busy cycles
system.cpu3.not_idle_fraction                0.995786                       # Percentage of non-idle cycles
system.cpu3.idle_fraction                    0.004214                       # Percentage of idle cycles
system.cpu3.Branches                         27048401                       # Number of branches fetched
system.cpu3.op_class::No_OpClass                11441      0.00%      0.00% # Class of executed instruction
system.cpu3.op_class::IntAlu                244800423     51.08%     51.09% # Class of executed instruction
system.cpu3.op_class::IntMult                    2303      0.00%     51.09% # Class of executed instruction
system.cpu3.op_class::IntDiv                     1809      0.00%     51.09% # Class of executed instruction
system.cpu3.op_class::FloatAdd              150373151     31.38%     82.46% # Class of executed instruction
system.cpu3.op_class::FloatCmp                      0      0.00%     82.46% # Class of executed instruction
system.cpu3.op_class::FloatCvt                      0      0.00%     82.46% # Class of executed instruction
system.cpu3.op_class::FloatMult                     0      0.00%     82.46% # Class of executed instruction
system.cpu3.op_class::FloatDiv                      0      0.00%     82.46% # Class of executed instruction
system.cpu3.op_class::FloatSqrt                     0      0.00%     82.46% # Class of executed instruction
system.cpu3.op_class::SimdAdd                       0      0.00%     82.46% # Class of executed instruction
system.cpu3.op_class::SimdAddAcc                    0      0.00%     82.46% # Class of executed instruction
system.cpu3.op_class::SimdAlu                       0      0.00%     82.46% # Class of executed instruction
system.cpu3.op_class::SimdCmp                       0      0.00%     82.46% # Class of executed instruction
system.cpu3.op_class::SimdCvt                       0      0.00%     82.46% # Class of executed instruction
system.cpu3.op_class::SimdMisc                      0      0.00%     82.46% # Class of executed instruction
system.cpu3.op_class::SimdMult                      0      0.00%     82.46% # Class of executed instruction
system.cpu3.op_class::SimdMultAcc                   0      0.00%     82.46% # Class of executed instruction
system.cpu3.op_class::SimdShift                     0      0.00%     82.46% # Class of executed instruction
system.cpu3.op_class::SimdShiftAcc                  0      0.00%     82.46% # Class of executed instruction
system.cpu3.op_class::SimdSqrt                      0      0.00%     82.46% # Class of executed instruction
system.cpu3.op_class::SimdFloatAdd                  0      0.00%     82.46% # Class of executed instruction
system.cpu3.op_class::SimdFloatAlu                  0      0.00%     82.46% # Class of executed instruction
system.cpu3.op_class::SimdFloatCmp                  0      0.00%     82.46% # Class of executed instruction
system.cpu3.op_class::SimdFloatCvt                  0      0.00%     82.46% # Class of executed instruction
system.cpu3.op_class::SimdFloatDiv                  0      0.00%     82.46% # Class of executed instruction
system.cpu3.op_class::SimdFloatMisc                 0      0.00%     82.46% # Class of executed instruction
system.cpu3.op_class::SimdFloatMult                 0      0.00%     82.46% # Class of executed instruction
system.cpu3.op_class::SimdFloatMultAcc              0      0.00%     82.46% # Class of executed instruction
system.cpu3.op_class::SimdFloatSqrt                 0      0.00%     82.46% # Class of executed instruction
system.cpu3.op_class::MemRead                62872668     13.12%     95.58% # Class of executed instruction
system.cpu3.op_class::MemWrite               21160877      4.42%    100.00% # Class of executed instruction
system.cpu3.op_class::IprAccess                     0      0.00%    100.00% # Class of executed instruction
system.cpu3.op_class::InstPrefetch                  0      0.00%    100.00% # Class of executed instruction
system.cpu3.op_class::total                 479222672                       # Class of executed instruction
system.iobus.trans_dist::ReadReq                  110                       # Transaction distribution
system.iobus.trans_dist::ReadResp                 110                       # Transaction distribution
system.iobus.trans_dist::WriteReq                 632                       # Transaction distribution
system.iobus.trans_dist::WriteResp                632                       # Transaction distribution
system.iobus.trans_dist::MessageReq                21                       # Transaction distribution
system.iobus.trans_dist::MessageResp               21                       # Transaction distribution
system.iobus.pkt_count_system.pc.south_bridge.io_apic.int_master::system.ruby.l0_cntrl0.sequencer.pio-slave-port            4                       # Packet count per connected master and slave (bytes)
system.iobus.pkt_count_system.pc.south_bridge.io_apic.int_master::system.ruby.l0_cntrl1.sequencer.pio-slave-port            4                       # Packet count per connected master and slave (bytes)
system.iobus.pkt_count_system.pc.south_bridge.io_apic.int_master::system.ruby.l0_cntrl2.sequencer.pio-slave-port            4                       # Packet count per connected master and slave (bytes)
system.iobus.pkt_count_system.pc.south_bridge.io_apic.int_master::system.ruby.l0_cntrl3.sequencer.pio-slave-port            4                       # Packet count per connected master and slave (bytes)
system.iobus.pkt_count_system.pc.south_bridge.io_apic.int_master::total           16                       # Packet count per connected master and slave (bytes)
system.iobus.pkt_count_system.ruby.l0_cntrl0.sequencer.mem-master-port::system.pc.south_bridge.ide.pio           34                       # Packet count per connected master and slave (bytes)
system.iobus.pkt_count_system.ruby.l0_cntrl0.sequencer.mem-master-port::system.pc.south_bridge.io_apic.pio           14                       # Packet count per connected master and slave (bytes)
system.iobus.pkt_count_system.ruby.l0_cntrl0.sequencer.mem-master-port::system.pc.com_1.pio          162                       # Packet count per connected master and slave (bytes)
system.iobus.pkt_count_system.ruby.l0_cntrl0.sequencer.mem-master-port::system.ruby.l0_cntrl0.sequencer.pio-slave-port          274                       # Packet count per connected master and slave (bytes)
system.iobus.pkt_count_system.ruby.l0_cntrl0.sequencer.mem-master-port::system.ruby.l0_cntrl1.sequencer.pio-slave-port            2                       # Packet count per connected master and slave (bytes)
system.iobus.pkt_count_system.ruby.l0_cntrl0.sequencer.mem-master-port::total          486                       # Packet count per connected master and slave (bytes)
system.iobus.pkt_count_system.ruby.l0_cntrl1.sequencer.mem-master-port::system.pc.south_bridge.ide.pio           46                       # Packet count per connected master and slave (bytes)
system.iobus.pkt_count_system.ruby.l0_cntrl1.sequencer.mem-master-port::system.pc.south_bridge.io_apic.pio            8                       # Packet count per connected master and slave (bytes)
system.iobus.pkt_count_system.ruby.l0_cntrl1.sequencer.mem-master-port::system.ruby.l0_cntrl0.sequencer.pio-slave-port            4                       # Packet count per connected master and slave (bytes)
system.iobus.pkt_count_system.ruby.l0_cntrl1.sequencer.mem-master-port::system.ruby.l0_cntrl1.sequencer.pio-slave-port          286                       # Packet count per connected master and slave (bytes)
system.iobus.pkt_count_system.ruby.l0_cntrl1.sequencer.mem-master-port::system.ruby.l0_cntrl2.sequencer.pio-slave-port            2                       # Packet count per connected master and slave (bytes)
system.iobus.pkt_count_system.ruby.l0_cntrl1.sequencer.mem-master-port::system.ruby.l0_cntrl3.sequencer.pio-slave-port            4                       # Packet count per connected master and slave (bytes)
system.iobus.pkt_count_system.ruby.l0_cntrl1.sequencer.mem-master-port::total          350                       # Packet count per connected master and slave (bytes)
system.iobus.pkt_count_system.ruby.l0_cntrl2.sequencer.mem-master-port::system.pc.south_bridge.ide.pio           46                       # Packet count per connected master and slave (bytes)
system.iobus.pkt_count_system.ruby.l0_cntrl2.sequencer.mem-master-port::system.pc.south_bridge.io_apic.pio            8                       # Packet count per connected master and slave (bytes)
system.iobus.pkt_count_system.ruby.l0_cntrl2.sequencer.mem-master-port::system.ruby.l0_cntrl2.sequencer.pio-slave-port          270                       # Packet count per connected master and slave (bytes)
system.iobus.pkt_count_system.ruby.l0_cntrl2.sequencer.mem-master-port::system.ruby.l0_cntrl3.sequencer.pio-slave-port            2                       # Packet count per connected master and slave (bytes)
system.iobus.pkt_count_system.ruby.l0_cntrl2.sequencer.mem-master-port::total          326                       # Packet count per connected master and slave (bytes)
system.iobus.pkt_count_system.ruby.l0_cntrl3.sequencer.mem-master-port::system.pc.south_bridge.ide.pio           12                       # Packet count per connected master and slave (bytes)
system.iobus.pkt_count_system.ruby.l0_cntrl3.sequencer.mem-master-port::system.pc.south_bridge.io_apic.pio            6                       # Packet count per connected master and slave (bytes)
system.iobus.pkt_count_system.ruby.l0_cntrl3.sequencer.mem-master-port::system.pc.com_1.pio           22                       # Packet count per connected master and slave (bytes)
system.iobus.pkt_count_system.ruby.l0_cntrl3.sequencer.mem-master-port::system.ruby.l0_cntrl0.sequencer.pio-slave-port            6                       # Packet count per connected master and slave (bytes)
system.iobus.pkt_count_system.ruby.l0_cntrl3.sequencer.mem-master-port::system.ruby.l0_cntrl1.sequencer.pio-slave-port            2                       # Packet count per connected master and slave (bytes)
system.iobus.pkt_count_system.ruby.l0_cntrl3.sequencer.mem-master-port::system.ruby.l0_cntrl2.sequencer.pio-slave-port            4                       # Packet count per connected master and slave (bytes)
system.iobus.pkt_count_system.ruby.l0_cntrl3.sequencer.mem-master-port::system.ruby.l0_cntrl3.sequencer.pio-slave-port          296                       # Packet count per connected master and slave (bytes)
system.iobus.pkt_count_system.ruby.l0_cntrl3.sequencer.mem-master-port::total          348                       # Packet count per connected master and slave (bytes)
system.iobus.pkt_count::total                    1526                       # Packet count per connected master and slave (bytes)
system.iobus.pkt_size_system.pc.south_bridge.io_apic.int_master::system.ruby.l0_cntrl0.sequencer.pio-slave-port            8                       # Cumulative packet size per connected master and slave (bytes)
system.iobus.pkt_size_system.pc.south_bridge.io_apic.int_master::system.ruby.l0_cntrl1.sequencer.pio-slave-port            8                       # Cumulative packet size per connected master and slave (bytes)
system.iobus.pkt_size_system.pc.south_bridge.io_apic.int_master::system.ruby.l0_cntrl2.sequencer.pio-slave-port            8                       # Cumulative packet size per connected master and slave (bytes)
system.iobus.pkt_size_system.pc.south_bridge.io_apic.int_master::system.ruby.l0_cntrl3.sequencer.pio-slave-port            8                       # Cumulative packet size per connected master and slave (bytes)
system.iobus.pkt_size_system.pc.south_bridge.io_apic.int_master::total           32                       # Cumulative packet size per connected master and slave (bytes)
system.iobus.pkt_size_system.ruby.l0_cntrl0.sequencer.mem-master-port::system.pc.south_bridge.ide.pio           20                       # Cumulative packet size per connected master and slave (bytes)
system.iobus.pkt_size_system.ruby.l0_cntrl0.sequencer.mem-master-port::system.pc.south_bridge.io_apic.pio           28                       # Cumulative packet size per connected master and slave (bytes)
system.iobus.pkt_size_system.ruby.l0_cntrl0.sequencer.mem-master-port::system.pc.com_1.pio           81                       # Cumulative packet size per connected master and slave (bytes)
system.iobus.pkt_size_system.ruby.l0_cntrl0.sequencer.mem-master-port::system.ruby.l0_cntrl0.sequencer.pio-slave-port          548                       # Cumulative packet size per connected master and slave (bytes)
system.iobus.pkt_size_system.ruby.l0_cntrl0.sequencer.mem-master-port::system.ruby.l0_cntrl1.sequencer.pio-slave-port            4                       # Cumulative packet size per connected master and slave (bytes)
system.iobus.pkt_size_system.ruby.l0_cntrl0.sequencer.mem-master-port::total          681                       # Cumulative packet size per connected master and slave (bytes)
system.iobus.pkt_size_system.ruby.l0_cntrl1.sequencer.mem-master-port::system.pc.south_bridge.ide.pio           26                       # Cumulative packet size per connected master and slave (bytes)
system.iobus.pkt_size_system.ruby.l0_cntrl1.sequencer.mem-master-port::system.pc.south_bridge.io_apic.pio           16                       # Cumulative packet size per connected master and slave (bytes)
system.iobus.pkt_size_system.ruby.l0_cntrl1.sequencer.mem-master-port::system.ruby.l0_cntrl0.sequencer.pio-slave-port            8                       # Cumulative packet size per connected master and slave (bytes)
system.iobus.pkt_size_system.ruby.l0_cntrl1.sequencer.mem-master-port::system.ruby.l0_cntrl1.sequencer.pio-slave-port          572                       # Cumulative packet size per connected master and slave (bytes)
system.iobus.pkt_size_system.ruby.l0_cntrl1.sequencer.mem-master-port::system.ruby.l0_cntrl2.sequencer.pio-slave-port            4                       # Cumulative packet size per connected master and slave (bytes)
system.iobus.pkt_size_system.ruby.l0_cntrl1.sequencer.mem-master-port::system.ruby.l0_cntrl3.sequencer.pio-slave-port            8                       # Cumulative packet size per connected master and slave (bytes)
system.iobus.pkt_size_system.ruby.l0_cntrl1.sequencer.mem-master-port::total          634                       # Cumulative packet size per connected master and slave (bytes)
system.iobus.pkt_size_system.ruby.l0_cntrl2.sequencer.mem-master-port::system.pc.south_bridge.ide.pio           26                       # Cumulative packet size per connected master and slave (bytes)
system.iobus.pkt_size_system.ruby.l0_cntrl2.sequencer.mem-master-port::system.pc.south_bridge.io_apic.pio           16                       # Cumulative packet size per connected master and slave (bytes)
system.iobus.pkt_size_system.ruby.l0_cntrl2.sequencer.mem-master-port::system.ruby.l0_cntrl2.sequencer.pio-slave-port          540                       # Cumulative packet size per connected master and slave (bytes)
system.iobus.pkt_size_system.ruby.l0_cntrl2.sequencer.mem-master-port::system.ruby.l0_cntrl3.sequencer.pio-slave-port            4                       # Cumulative packet size per connected master and slave (bytes)
system.iobus.pkt_size_system.ruby.l0_cntrl2.sequencer.mem-master-port::total          586                       # Cumulative packet size per connected master and slave (bytes)
system.iobus.pkt_size_system.ruby.l0_cntrl3.sequencer.mem-master-port::system.pc.south_bridge.ide.pio            6                       # Cumulative packet size per connected master and slave (bytes)
system.iobus.pkt_size_system.ruby.l0_cntrl3.sequencer.mem-master-port::system.pc.south_bridge.io_apic.pio           12                       # Cumulative packet size per connected master and slave (bytes)
system.iobus.pkt_size_system.ruby.l0_cntrl3.sequencer.mem-master-port::system.pc.com_1.pio           11                       # Cumulative packet size per connected master and slave (bytes)
system.iobus.pkt_size_system.ruby.l0_cntrl3.sequencer.mem-master-port::system.ruby.l0_cntrl0.sequencer.pio-slave-port           12                       # Cumulative packet size per connected master and slave (bytes)
system.iobus.pkt_size_system.ruby.l0_cntrl3.sequencer.mem-master-port::system.ruby.l0_cntrl1.sequencer.pio-slave-port            4                       # Cumulative packet size per connected master and slave (bytes)
system.iobus.pkt_size_system.ruby.l0_cntrl3.sequencer.mem-master-port::system.ruby.l0_cntrl2.sequencer.pio-slave-port            8                       # Cumulative packet size per connected master and slave (bytes)
system.iobus.pkt_size_system.ruby.l0_cntrl3.sequencer.mem-master-port::system.ruby.l0_cntrl3.sequencer.pio-slave-port          592                       # Cumulative packet size per connected master and slave (bytes)
system.iobus.pkt_size_system.ruby.l0_cntrl3.sequencer.mem-master-port::total          645                       # Cumulative packet size per connected master and slave (bytes)
system.iobus.pkt_size::total                     2578                       # Cumulative packet size per connected master and slave (bytes)
system.iobus.reqLayer2.occupancy               122500                       # Layer occupancy (ticks)
system.iobus.reqLayer2.utilization                0.0                       # Layer utilization (%)
system.iobus.reqLayer8.occupancy                32996                       # Layer occupancy (ticks)
system.iobus.reqLayer8.utilization                0.0                       # Layer utilization (%)
system.iobus.reqLayer12.occupancy              120000                       # Layer occupancy (ticks)
system.iobus.reqLayer12.utilization               0.0                       # Layer utilization (%)
system.iobus.reqLayer17.occupancy              355499                       # Layer occupancy (ticks)
system.iobus.reqLayer17.utilization               0.0                       # Layer utilization (%)
system.iobus.reqLayer18.occupancy              357997                       # Layer occupancy (ticks)
system.iobus.reqLayer18.utilization               0.0                       # Layer utilization (%)
system.iobus.reqLayer19.occupancy              344998                       # Layer occupancy (ticks)
system.iobus.reqLayer19.utilization               0.0                       # Layer utilization (%)
system.iobus.reqLayer20.occupancy              344994                       # Layer occupancy (ticks)
system.iobus.reqLayer20.utilization               0.0                       # Layer utilization (%)
system.iobus.respLayer0.occupancy               11497                       # Layer occupancy (ticks)
system.iobus.respLayer0.utilization               0.0                       # Layer utilization (%)
system.iobus.respLayer2.occupancy              378500                       # Layer occupancy (ticks)
system.iobus.respLayer2.utilization               0.0                       # Layer utilization (%)
system.iobus.respLayer4.occupancy              260500                       # Layer occupancy (ticks)
system.iobus.respLayer4.utilization               0.0                       # Layer utilization (%)
system.iobus.respLayer6.occupancy              241500                       # Layer occupancy (ticks)
system.iobus.respLayer6.utilization               0.0                       # Layer utilization (%)
system.iobus.respLayer8.occupancy              266000                       # Layer occupancy (ticks)
system.iobus.respLayer8.utilization               0.0                       # Layer utilization (%)
system.pc.south_bridge.ide.disks.dma_read_full_pages            0                       # Number of full page size DMA reads (not PRD).
system.pc.south_bridge.ide.disks.dma_read_bytes            0                       # Number of bytes transfered via DMA reads (not PRD).
system.pc.south_bridge.ide.disks.dma_read_txs            0                       # Number of DMA read transactions (not PRD).
system.pc.south_bridge.ide.disks.dma_write_full_pages           45                       # Number of full page size DMA writes.
system.pc.south_bridge.ide.disks.dma_write_bytes       184320                       # Number of bytes transfered via DMA writes.
system.pc.south_bridge.ide.disks.dma_write_txs           45                       # Number of DMA write transactions.
system.ruby.clk_domain.clock                      500                       # Clock period in ticks
system.ruby.delayHist::bucket_size                  4                       # delay histogram for all message
system.ruby.delayHist::max_bucket                  39                       # delay histogram for all message
system.ruby.delayHist::samples               24890883                       # delay histogram for all message
system.ruby.delayHist::mean                  0.019689                       # delay histogram for all message
system.ruby.delayHist::stdev                 0.397751                       # delay histogram for all message
system.ruby.delayHist                    |    24829833     99.75%     99.75% |         489      0.00%     99.76% |       60373      0.24%    100.00% |          56      0.00%    100.00% |         105      0.00%    100.00% |           3      0.00%    100.00% |          24      0.00%    100.00% |           0      0.00%    100.00% |           0      0.00%    100.00% |           0      0.00%    100.00% # delay histogram for all message
system.ruby.delayHist::total                 24890883                       # delay histogram for all message
system.ruby.outstanding_req_hist_seqr::bucket_size            1                      
system.ruby.outstanding_req_hist_seqr::max_bucket            9                      
system.ruby.outstanding_req_hist_seqr::samples    462451165                      
system.ruby.outstanding_req_hist_seqr::mean     1.000000                      
system.ruby.outstanding_req_hist_seqr::gmean     1.000000                      
system.ruby.outstanding_req_hist_seqr::stdev     0.000661                      
system.ruby.outstanding_req_hist_seqr    |           0      0.00%      0.00% |   462450963    100.00%    100.00% |         202      0.00%    100.00% |           0      0.00%    100.00% |           0      0.00%    100.00% |           0      0.00%    100.00% |           0      0.00%    100.00% |           0      0.00%    100.00% |           0      0.00%    100.00% |           0      0.00%    100.00%
system.ruby.outstanding_req_hist_seqr::total    462451165                      
system.ruby.latency_hist_seqr::bucket_size          128                      
system.ruby.latency_hist_seqr::max_bucket         1279                      
system.ruby.latency_hist_seqr::samples      462451165                      
system.ruby.latency_hist_seqr::mean          1.215137                      
[...]
system.ruby.L1Cache_Controller.L0_Ack::total       273004                      
system.ruby.L1Cache_Controller.Ack       |        3341     46.04%     46.04% |        1465     20.19%     66.23% |        1161     16.00%     82.22% |        1290     17.78%    100.00%
system.ruby.L1Cache_Controller.Ack::total         7257                      
system.ruby.L1Cache_Controller.Ack_all   |        1932     34.53%     34.53% |        1331     23.79%     58.32% |        1030     18.41%     76.73% |        1302     23.27%    100.00%
system.ruby.L1Cache_Controller.Ack_all::total         5595                      
system.ruby.L1Cache_Controller.WB_Ack    |       43255      6.57%      6.57% |       59242      9.00%     15.57% |       40979      6.22%     21.79% |      514998     78.21%    100.00%
system.ruby.L1Cache_Controller.WB_Ack::total       658474                      
system.ruby.L1Cache_Controller.I.Load    |       57062      7.57%      7.57% |       73017      9.69%     17.26% |       55626      7.38%     24.65% |      567801     75.35%    100.00%
system.ruby.L1Cache_Controller.I.Load::total       753506                      
system.ruby.L1Cache_Controller.I.Store   |       12433     13.61%     13.61% |       18382     20.12%     33.73% |       11909     13.04%     46.77% |       48632     53.23%    100.00%
system.ruby.L1Cache_Controller.I.Store::total        91356                      
system.ruby.L1Cache_Controller.I.Inv     |        1542     24.67%     24.67% |        1384     22.14%     46.81% |        1574     25.18%     71.99% |        1751     28.01%    100.00%
system.ruby.L1Cache_Controller.I.Inv::total         6251                      
system.ruby.L1Cache_Controller.S.Load    |       73660      1.71%      1.71% |       78255      1.81%      3.52% |       71574      1.66%      5.18% |     4093981     94.82%    100.00%
system.ruby.L1Cache_Controller.S.Load::total      4317470                      
system.ruby.L1Cache_Controller.S.Store   |        1344     31.89%     31.89% |         954     22.63%     54.52% |         933     22.14%     76.65% |         984     23.35%    100.00%
system.ruby.L1Cache_Controller.S.Store::total         4215                      
system.ruby.L1Cache_Controller.S.L0_Invalidate_Own |       22976     13.37%     13.37% |       28147     16.37%     29.74% |       22195     12.91%     42.65% |       98580     57.35%    100.00%
system.ruby.L1Cache_Controller.S.L0_Invalidate_Own::total       171898                      
system.ruby.L1Cache_Controller.S.L0_Invalidate_Else |         428     14.42%     14.42% |         970     32.67%     47.09% |        1291     43.48%     90.57% |         280      9.43%    100.00%
system.ruby.L1Cache_Controller.S.L0_Invalidate_Else::total         2969                      
system.ruby.L1Cache_Controller.SS.Load   |         761     50.36%     50.36% |         326     21.58%     71.94% |         266     17.60%     89.54% |         158     10.46%    100.00%
system.ruby.L1Cache_Controller.SS.Load::total         1511                      
system.ruby.L1Cache_Controller.SS.Store  |         194     61.98%     61.98% |          57     18.21%     80.19% |          11      3.51%     83.71% |          51     16.29%    100.00%
system.ruby.L1Cache_Controller.SS.Store::total          313                      
system.ruby.L1Cache_Controller.SS.Inv    |        1147     17.56%     17.56% |        2251     34.46%     52.02% |        2243     34.34%     86.36% |         891     13.64%    100.00%
system.ruby.L1Cache_Controller.SS.Inv::total         6532                      
system.ruby.L1Cache_Controller.SS.L1_Replacement |       23960     13.68%     13.68% |       28825     16.46%     30.14% |       23091     13.18%     43.33% |       99255     56.67%    100.00%
system.ruby.L1Cache_Controller.SS.L1_Replacement::total       175131                      
system.ruby.L1Cache_Controller.E.WriteBack |       32730      6.38%      6.38% |       42413      8.27%     14.66% |       30716      5.99%     20.65% |      406852     79.35%    100.00%
system.ruby.L1Cache_Controller.E.WriteBack::total       512711                      
system.ruby.L1Cache_Controller.E.L0_Invalidate_Own |         404      0.65%      0.65% |         512      0.82%      1.47% |         492      0.79%      2.26% |       61028     97.74%    100.00%
system.ruby.L1Cache_Controller.E.L0_Invalidate_Own::total        62436                      
system.ruby.L1Cache_Controller.E.L0_Invalidate_Else |         150     29.94%     29.94% |         150     29.94%     59.88% |          85     16.97%     76.85% |         116     23.15%    100.00%
system.ruby.L1Cache_Controller.E.L0_Invalidate_Else::total          501                      
system.ruby.L1Cache_Controller.EE.Inv    |          27     35.53%     35.53% |          19     25.00%     60.53% |          14     18.42%     78.95% |          16     21.05%    100.00%
system.ruby.L1Cache_Controller.EE.Inv::total           76                      
system.ruby.L1Cache_Controller.EE.L1_Replacement |         338      0.54%      0.54% |         450      0.72%      1.27% |         440      0.71%      1.98% |       60920     98.02%    100.00%
system.ruby.L1Cache_Controller.EE.L1_Replacement::total        62148                      
system.ruby.L1Cache_Controller.EE.Fwd_GETX |           3     23.08%     23.08% |           4     30.77%     53.85% |           3     23.08%     76.92% |           3     23.08%    100.00%
system.ruby.L1Cache_Controller.EE.Fwd_GETX::total           13                      
system.ruby.L1Cache_Controller.EE.Fwd_GETS |          83     27.67%     27.67% |          92     30.67%     58.33% |          50     16.67%     75.00% |          75     25.00%    100.00%
system.ruby.L1Cache_Controller.EE.Fwd_GETS::total          300                      
system.ruby.L1Cache_Controller.M.WriteBack |       91984      0.51%      0.51% |      736035      4.11%      4.62% |       78021      0.44%      5.06% |    16998674     94.94%    100.00%
system.ruby.L1Cache_Controller.M.WriteBack::total     17904714                      
system.ruby.L1Cache_Controller.M.L0_Invalidate_Own |        1331      3.48%      3.48% |        1977      5.17%      8.66% |         929      2.43%     11.09% |       33974     88.91%    100.00%
system.ruby.L1Cache_Controller.M.L0_Invalidate_Own::total        38211                      
system.ruby.L1Cache_Controller.M.L0_Invalidate_Else |         768     42.11%     42.11% |         482     26.43%     68.53% |         326     17.87%     86.40% |         248     13.60%    100.00%
system.ruby.L1Cache_Controller.M.L0_Invalidate_Else::total         1824                      
system.ruby.L1Cache_Controller.MM.Load   |       62529      0.36%      0.36% |      672812      3.86%      4.21% |       48905      0.28%      4.49% |    16667859     95.51%    100.00%
system.ruby.L1Cache_Controller.MM.Load::total     17452105                      
system.ruby.L1Cache_Controller.MM.Store  |       17599      4.44%      4.44% |       46265     11.66%     16.10% |       17515      4.41%     20.51% |      315364     79.49%    100.00%
system.ruby.L1Cache_Controller.MM.Store::total       396743                      
system.ruby.L1Cache_Controller.MM.Inv    |         552     17.59%     17.59% |         799     25.46%     43.05% |         826     26.32%     69.38% |         961     30.62%    100.00%
system.ruby.L1Cache_Controller.MM.Inv::total         3138                      
system.ruby.L1Cache_Controller.MM.L1_Replacement |       42917      7.20%      7.20% |       58792      9.86%     17.06% |       40539      6.80%     23.85% |      454078     76.15%    100.00%
system.ruby.L1Cache_Controller.MM.L1_Replacement::total       596326                      
system.ruby.L1Cache_Controller.MM.Fwd_GETX |         438     24.84%     24.84% |         532     30.18%     55.02% |         366     20.76%     75.78% |         427     24.22%    100.00%
system.ruby.L1Cache_Controller.MM.Fwd_GETX::total         1763                      
system.ruby.L1Cache_Controller.MM.Fwd_GETS |        2491     31.21%     31.21% |        2328     29.17%     60.38% |        1764     22.10%     82.48% |        1398     17.52%    100.00%
system.ruby.L1Cache_Controller.MM.Fwd_GETS::total         7981                      
system.ruby.L1Cache_Controller.IS.Data_Exclusive |       33300      5.78%      5.78% |       43052      7.48%     13.26% |       31295      5.44%     18.70% |      467999     81.30%    100.00%
system.ruby.L1Cache_Controller.IS.Data_Exclusive::total       575646                      
system.ruby.L1Cache_Controller.IS.DataS_fromL1 |        1593     19.23%     19.23% |        2047     24.72%     43.95% |        2412     29.12%     73.07% |        2230     26.93%    100.00%
system.ruby.L1Cache_Controller.IS.DataS_fromL1::total         8282                      
system.ruby.L1Cache_Controller.IS.Data_all_Acks |       22169     13.07%     13.07% |       27918     16.46%     29.54% |       21919     12.93%     42.46% |       97572     57.54%    100.00%
system.ruby.L1Cache_Controller.IS.Data_all_Acks::total       169578                      
system.ruby.L1Cache_Controller.IM.Data   |         394     36.89%     36.89% |         321     30.06%     66.95% |          86      8.05%     75.00% |         267     25.00%    100.00%
system.ruby.L1Cache_Controller.IM.Data::total         1068                      
system.ruby.L1Cache_Controller.IM.Data_all_Acks |       12039     13.33%     13.33% |       18062     20.00%     33.34% |       11823     13.09%     46.43% |       48365     53.57%    100.00%
system.ruby.L1Cache_Controller.IM.Data_all_Acks::total        90289                      
system.ruby.L1Cache_Controller.SM.Inv    |           0      0.00%      0.00% |           1    100.00%    100.00% |           0      0.00%    100.00% |           0      0.00%    100.00%
system.ruby.L1Cache_Controller.SM.Inv::total            1                      
system.ruby.L1Cache_Controller.SM.Ack    |        3341     46.04%     46.04% |        1465     20.19%     66.23% |        1161     16.00%     82.22% |        1290     17.78%    100.00%
system.ruby.L1Cache_Controller.SM.Ack::total         7257                      
system.ruby.L1Cache_Controller.SM.Ack_all |        1932     34.53%     34.53% |        1331     23.79%     58.32% |        1030     18.41%     76.73% |        1302     23.27%    100.00%
system.ruby.L1Cache_Controller.SM.Ack_all::total         5595                      
system.ruby.L1Cache_Controller.M_I.Fwd_GETS |           0      0.00%      0.00% |           0      0.00%      0.00% |           0      0.00%      0.00% |           1    100.00%    100.00%
system.ruby.L1Cache_Controller.M_I.Fwd_GETS::total            1                      
system.ruby.L1Cache_Controller.M_I.WB_Ack |       43255      6.57%      6.57% |       59242      9.00%     15.57% |       40979      6.22%     21.79% |      514997     78.21%    100.00%
system.ruby.L1Cache_Controller.M_I.WB_Ack::total       658473                      
system.ruby.L1Cache_Controller.SINK_WB_ACK.WB_Ack |           0      0.00%      0.00% |           0      0.00%      0.00% |           0      0.00%      0.00% |           1    100.00%    100.00%
system.ruby.L1Cache_Controller.SINK_WB_ACK.WB_Ack::total            1                      
system.ruby.L1Cache_Controller.S_IL0.L0_Invalidate_Own |       22976     13.37%     13.37% |       28147     16.37%     29.74% |       22195     12.91%     42.65% |       98580     57.35%    100.00%
system.ruby.L1Cache_Controller.S_IL0.L0_Invalidate_Own::total       171898                      
system.ruby.L1Cache_Controller.S_IL0.L0_Invalidate_Else |         428     14.42%     14.42% |         970     32.67%     47.09% |        1291     43.48%     90.57% |         280      9.43%    100.00%
system.ruby.L1Cache_Controller.S_IL0.L0_Invalidate_Else::total         2969                      
system.ruby.L1Cache_Controller.S_IL0.L0_Ack |       23404     13.38%     13.38% |       29117     16.65%     30.03% |       23486     13.43%     43.47% |       98860     56.53%    100.00%
system.ruby.L1Cache_Controller.S_IL0.L0_Ack::total       174867                      
system.ruby.L1Cache_Controller.E_IL0.L0_DataAck |         103     25.75%     25.75% |          97     24.25%     50.00% |          70     17.50%     67.50% |         130     32.50%    100.00%
system.ruby.L1Cache_Controller.E_IL0.L0_DataAck::total          400                      
system.ruby.L1Cache_Controller.E_IL0.L0_Invalidate_Own |         404      0.65%      0.65% |         512      0.82%      1.47% |         492      0.79%      2.26% |       61028     97.74%    100.00%
system.ruby.L1Cache_Controller.E_IL0.L0_Invalidate_Own::total        62436                      
system.ruby.L1Cache_Controller.E_IL0.L0_Invalidate_Else |         150     29.94%     29.94% |         150     29.94%     59.88% |          85     16.97%     76.85% |         116     23.15%    100.00%
system.ruby.L1Cache_Controller.E_IL0.L0_Invalidate_Else::total          501                      
system.ruby.L1Cache_Controller.E_IL0.L0_Ack |         451      0.72%      0.72% |         565      0.90%      1.62% |         507      0.81%      2.44% |       61014     97.56%    100.00%
system.ruby.L1Cache_Controller.E_IL0.L0_Ack::total        62537                      
system.ruby.L1Cache_Controller.M_IL0.L0_DataAck |        1287     29.02%     29.02% |        1483     33.44%     62.46% |         740     16.69%     79.14% |         925     20.86%    100.00%
system.ruby.L1Cache_Controller.M_IL0.L0_DataAck::total         4435                      
system.ruby.L1Cache_Controller.M_IL0.L0_Invalidate_Own |        1331      3.48%      3.48% |        1977      5.17%      8.66% |         929      2.43%     11.09% |       33974     88.91%    100.00%
system.ruby.L1Cache_Controller.M_IL0.L0_Invalidate_Own::total        38211                      
system.ruby.L1Cache_Controller.M_IL0.L0_Invalidate_Else |         768     42.11%     42.11% |         482     26.43%     68.53% |         326     17.87%     86.40% |         248     13.60%    100.00%
system.ruby.L1Cache_Controller.M_IL0.L0_Invalidate_Else::total         1824                      
system.ruby.L1Cache_Controller.M_IL0.L0_Ack |         812      2.28%      2.28% |         976      2.74%      5.02% |         515      1.45%      6.47% |       33297     93.53%    100.00%
system.ruby.L1Cache_Controller.M_IL0.L0_Ack::total        35600                      
system.ruby.L2Cache_Controller.L1_GETS         753552      0.00%      0.00%
system.ruby.L2Cache_Controller.L1_GETX          91360      0.00%      0.00%
system.ruby.L2Cache_Controller.L1_UPGRADE         4528      0.00%      0.00%
system.ruby.L2Cache_Controller.L1_PUTX         658475      0.00%      0.00%
system.ruby.L2Cache_Controller.L2_Replacement        23542      0.00%      0.00%
system.ruby.L2Cache_Controller.L2_Replacement_clean        23557      0.00%      0.00%
system.ruby.L2Cache_Controller.Mem_Data         56669      0.00%      0.00%
system.ruby.L2Cache_Controller.Mem_Ack          47202      0.00%      0.00%
system.ruby.L2Cache_Controller.WB_Data           5108      0.00%      0.00%
system.ruby.L2Cache_Controller.WB_Data_clean         6312      0.00%      0.00%
system.ruby.L2Cache_Controller.Ack               2795      0.00%      0.00%
system.ruby.L2Cache_Controller.Ack_all           1740      0.00%      0.00%
system.ruby.L2Cache_Controller.Unblock           8282      0.00%      0.00%
system.ruby.L2Cache_Controller.Exclusive_Unblock       671530      0.00%      0.00%
system.ruby.L2Cache_Controller.MEM_Inv            206      0.00%      0.00%
system.ruby.L2Cache_Controller.NP.L1_GETS        36181      0.00%      0.00%
system.ruby.L2Cache_Controller.NP.L1_GETX        20488      0.00%      0.00%
system.ruby.L2Cache_Controller.SS.L1_GETS       169556      0.00%      0.00%
system.ruby.L2Cache_Controller.SS.L1_GETX         1068      0.00%      0.00%
system.ruby.L2Cache_Controller.SS.L1_UPGRADE         4527      0.00%      0.00%
system.ruby.L2Cache_Controller.SS.L1_PUTX            1      0.00%      0.00%
system.ruby.L2Cache_Controller.SS.L2_Replacement          339      0.00%      0.00%
system.ruby.L2Cache_Controller.SS.L2_Replacement_clean         1325      0.00%      0.00%
system.ruby.L2Cache_Controller.M.L1_GETS       539476      0.00%      0.00%
system.ruby.L2Cache_Controller.M.L1_GETX        68025      0.00%      0.00%
system.ruby.L2Cache_Controller.M.L2_Replacement        22768      0.00%      0.00%
system.ruby.L2Cache_Controller.M.L2_Replacement_clean        19462      0.00%      0.00%
system.ruby.L2Cache_Controller.M.MEM_Inv           94      0.00%      0.00%
system.ruby.L2Cache_Controller.MT.L1_GETS         8282      0.00%      0.00%
system.ruby.L2Cache_Controller.MT.L1_GETX         1776      0.00%      0.00%
system.ruby.L2Cache_Controller.MT.L1_PUTX       658473      0.00%      0.00%
system.ruby.L2Cache_Controller.MT.L2_Replacement          435      0.00%      0.00%
system.ruby.L2Cache_Controller.MT.L2_Replacement_clean         2770      0.00%      0.00%
system.ruby.L2Cache_Controller.MT.MEM_Inv            9      0.00%      0.00%
system.ruby.L2Cache_Controller.M_I.L1_GETX            1      0.00%      0.00%
system.ruby.L2Cache_Controller.M_I.Mem_Ack        47202      0.00%      0.00%
system.ruby.L2Cache_Controller.M_I.MEM_Inv           94      0.00%      0.00%
system.ruby.L2Cache_Controller.MT_I.WB_Data          297      0.00%      0.00%
system.ruby.L2Cache_Controller.MT_I.WB_Data_clean          140      0.00%      0.00%
system.ruby.L2Cache_Controller.MT_I.Ack_all            7      0.00%      0.00%
system.ruby.L2Cache_Controller.MT_I.MEM_Inv            9      0.00%      0.00%
system.ruby.L2Cache_Controller.MCT_I.WB_Data         1377      0.00%      0.00%
system.ruby.L2Cache_Controller.MCT_I.WB_Data_clean         1324      0.00%      0.00%
system.ruby.L2Cache_Controller.MCT_I.Ack_all           69      0.00%      0.00%
system.ruby.L2Cache_Controller.I_I.Ack           2431      0.00%      0.00%
system.ruby.L2Cache_Controller.I_I.Ack_all         1325      0.00%      0.00%
system.ruby.L2Cache_Controller.S_I.Ack            364      0.00%      0.00%
system.ruby.L2Cache_Controller.S_I.Ack_all          339      0.00%      0.00%
system.ruby.L2Cache_Controller.ISS.L1_GETS           11      0.00%      0.00%
system.ruby.L2Cache_Controller.ISS.Mem_Data        36170      0.00%      0.00%
system.ruby.L2Cache_Controller.IS.Mem_Data           11      0.00%      0.00%
system.ruby.L2Cache_Controller.IM.Mem_Data        20488      0.00%      0.00%
system.ruby.L2Cache_Controller.SS_MB.L1_GETS           27      0.00%      0.00%
system.ruby.L2Cache_Controller.SS_MB.L1_GETX            1      0.00%      0.00%
system.ruby.L2Cache_Controller.SS_MB.L1_UPGRADE            1      0.00%      0.00%
system.ruby.L2Cache_Controller.SS_MB.Exclusive_Unblock         5595      0.00%      0.00%
system.ruby.L2Cache_Controller.MT_MB.L1_GETS           17      0.00%      0.00%
system.ruby.L2Cache_Controller.MT_MB.L1_GETX            1      0.00%      0.00%
system.ruby.L2Cache_Controller.MT_MB.Exclusive_Unblock       665935      0.00%      0.00%
system.ruby.L2Cache_Controller.MT_IIB.L1_GETS            2      0.00%      0.00%
system.ruby.L2Cache_Controller.MT_IIB.L1_PUTX            1      0.00%      0.00%
system.ruby.L2Cache_Controller.MT_IIB.WB_Data         3425      0.00%      0.00%
system.ruby.L2Cache_Controller.MT_IIB.WB_Data_clean         4842      0.00%      0.00%
system.ruby.L2Cache_Controller.MT_IIB.Unblock           15      0.00%      0.00%
system.ruby.L2Cache_Controller.MT_IB.WB_Data            9      0.00%      0.00%
system.ruby.L2Cache_Controller.MT_IB.WB_Data_clean            6      0.00%      0.00%
system.ruby.L2Cache_Controller.MT_SB.Unblock         8267      0.00%      0.00%

---------- End Simulation Statistics   ----------
