
---------- Begin Simulation Statistics ----------
sim_seconds                                  1.224750                       # Number of seconds simulated
sim_ticks                                1224750207500                       # Number of ticks simulated
final_tick                               53781505352001                       # Number of ticks from beginning of simulation (restored from checkpoints and never reset)
sim_freq                                 1000000000000                       # Frequency of simulated ticks
host_inst_rate                                 129116                       # Simulator instruction rate (inst/s)
host_op_rate                                   172764                       # Simulator op (including micro ops) rate (op/s)
host_tick_rate                              291988635                       # Simulator tick rate (ticks/s)
host_mem_usage                                1800488                       # Number of bytes of host memory used
host_seconds                                  4194.51                       # Real time elapsed on the host
sim_insts                                   541579485                       # Number of instructions simulated
sim_ops                                     724662061                       # Number of ops (including micro ops) simulated
system.voltage_domain.voltage                       1                       # Voltage in Volts
system.clk_domain.clock                          1000                       # Clock period in ticks
system.mem_ctrls.bytes_read::ruby.dir_cntrl0    189756864                       # Number of bytes read from this memory
system.mem_ctrls.bytes_read::total          189756864                       # Number of bytes read from this memory
system.mem_ctrls.bytes_written::ruby.dir_cntrl0    119012416                       # Number of bytes written to this memory
system.mem_ctrls.bytes_written::total       119012416                       # Number of bytes written to this memory
system.mem_ctrls.num_reads::ruby.dir_cntrl0      2964951                       # Number of read requests responded to by this memory
system.mem_ctrls.num_reads::total             2964951                       # Number of read requests responded to by this memory
system.mem_ctrls.num_writes::ruby.dir_cntrl0      1859569                       # Number of write requests responded to by this memory
system.mem_ctrls.num_writes::total            1859569                       # Number of write requests responded to by this memory
system.mem_ctrls.bw_read::ruby.dir_cntrl0    154935156                       # Total read bandwidth from this memory (bytes/s)
system.mem_ctrls.bw_read::total             154935156                       # Total read bandwidth from this memory (bytes/s)
system.mem_ctrls.bw_write::ruby.dir_cntrl0     97172807                       # Write bandwidth from this memory (bytes/s)
system.mem_ctrls.bw_write::total             97172807                       # Write bandwidth from this memory (bytes/s)
system.mem_ctrls.bw_total::ruby.dir_cntrl0    252107963                       # Total bandwidth to/from this memory (bytes/s)
system.mem_ctrls.bw_total::total            252107963                       # Total bandwidth to/from this memory (bytes/s)
system.mem_ctrls.readReqs                     2964951                       # Number of read requests accepted
system.mem_ctrls.writeReqs                    1859569                       # Number of write requests accepted
system.mem_ctrls.readBursts                   2964951                       # Number of DRAM read bursts, including those serviced by the write queue
system.mem_ctrls.writeBursts                  1859569                       # Number of DRAM write bursts, including those merged in the write queue
system.mem_ctrls.bytesReadDRAM              187696320                       # Total number of bytes read from DRAM
system.mem_ctrls.bytesReadWrQ                 2060544                       # Total number of bytes read from write queue
system.mem_ctrls.bytesWritten               119009344                       # Total number of bytes written to DRAM
system.mem_ctrls.bytesReadSys               189756864                       # Total read bytes from the system interface side
system.mem_ctrls.bytesWrittenSys            119012416                       # Total written bytes from the system interface side
system.mem_ctrls.servicedByWrQ                  32196                       # Number of DRAM read bursts serviced by the write queue
system.mem_ctrls.mergedWrBursts                    41                       # Number of DRAM write bursts merged with an existing one
system.mem_ctrls.neitherReadNorWriteReqs            0                       # Number of requests that are neither read nor write
system.mem_ctrls.perBankRdBursts::0            186153                       # Per bank write bursts
system.mem_ctrls.perBankRdBursts::1            192141                       # Per bank write bursts
system.mem_ctrls.perBankRdBursts::2            178878                       # Per bank write bursts
system.mem_ctrls.perBankRdBursts::3            178065                       # Per bank write bursts
system.mem_ctrls.perBankRdBursts::4            182091                       # Per bank write bursts
system.mem_ctrls.perBankRdBursts::5            187320                       # Per bank write bursts
system.mem_ctrls.perBankRdBursts::6            185902                       # Per bank write bursts
system.mem_ctrls.perBankRdBursts::7            181591                       # Per bank write bursts
system.mem_ctrls.perBankRdBursts::8            182068                       # Per bank write bursts
system.mem_ctrls.perBankRdBursts::9            182400                       # Per bank write bursts
system.mem_ctrls.perBankRdBursts::10           185443                       # Per bank write bursts
system.mem_ctrls.perBankRdBursts::11           177729                       # Per bank write bursts
system.mem_ctrls.perBankRdBursts::12           178135                       # Per bank write bursts
system.mem_ctrls.perBankRdBursts::13           185634                       # Per bank write bursts
system.mem_ctrls.perBankRdBursts::14           185096                       # Per bank write bursts
system.mem_ctrls.perBankRdBursts::15           184109                       # Per bank write bursts
system.mem_ctrls.perBankWrBursts::0            116376                       # Per bank write bursts
system.mem_ctrls.perBankWrBursts::1            125553                       # Per bank write bursts
system.mem_ctrls.perBankWrBursts::2            112683                       # Per bank write bursts
system.mem_ctrls.perBankWrBursts::3            110998                       # Per bank write bursts
system.mem_ctrls.perBankWrBursts::4            113267                       # Per bank write bursts
system.mem_ctrls.perBankWrBursts::5            122031                       # Per bank write bursts
system.mem_ctrls.perBankWrBursts::6            117560                       # Per bank write bursts
system.mem_ctrls.perBankWrBursts::7            113505                       # Per bank write bursts
system.mem_ctrls.perBankWrBursts::8            115977                       # Per bank write bursts
system.mem_ctrls.perBankWrBursts::9            114399                       # Per bank write bursts
system.mem_ctrls.perBankWrBursts::10           119833                       # Per bank write bursts
system.mem_ctrls.perBankWrBursts::11           113282                       # Per bank write bursts
system.mem_ctrls.perBankWrBursts::12           113510                       # Per bank write bursts
system.mem_ctrls.perBankWrBursts::13           118562                       # Per bank write bursts
system.mem_ctrls.perBankWrBursts::14           118271                       # Per bank write bursts
system.mem_ctrls.perBankWrBursts::15           113714                       # Per bank write bursts
system.mem_ctrls.numRdRetry                         0                       # Number of times read queue was full causing retry
system.mem_ctrls.numWrRetry                         0                       # Number of times write queue was full causing retry
system.mem_ctrls.totGap                  1224750072500                       # Total gap between requests
system.mem_ctrls.readPktSize::0                     0                       # Read request sizes (log2)
system.mem_ctrls.readPktSize::1                     0                       # Read request sizes (log2)
system.mem_ctrls.readPktSize::2                     0                       # Read request sizes (log2)
system.mem_ctrls.readPktSize::3                     0                       # Read request sizes (log2)
system.mem_ctrls.readPktSize::4                     0                       # Read request sizes (log2)
system.mem_ctrls.readPktSize::5                     0                       # Read request sizes (log2)
system.mem_ctrls.readPktSize::6               2964951                       # Read request sizes (log2)
system.mem_ctrls.writePktSize::0                    0                       # Write request sizes (log2)
system.mem_ctrls.writePktSize::1                    0                       # Write request sizes (log2)
system.mem_ctrls.writePktSize::2                    0                       # Write request sizes (log2)
system.mem_ctrls.writePktSize::3                    0                       # Write request sizes (log2)
system.mem_ctrls.writePktSize::4                    0                       # Write request sizes (log2)
system.mem_ctrls.writePktSize::5                    0                       # Write request sizes (log2)
system.mem_ctrls.writePktSize::6              1859569                       # Write request sizes (log2)
system.mem_ctrls.rdQLenPdf::0                 2918597                       # What read queue length does an incoming req see
system.mem_ctrls.rdQLenPdf::1                   14152                       # What read queue length does an incoming req see
system.mem_ctrls.rdQLenPdf::2                       6                       # What read queue length does an incoming req see
system.mem_ctrls.rdQLenPdf::3                       0                       # What read queue length does an incoming req see
system.mem_ctrls.rdQLenPdf::4                       0                       # What read queue length does an incoming req see
system.mem_ctrls.rdQLenPdf::5                       0                       # What read queue length does an incoming req see
system.mem_ctrls.rdQLenPdf::6                       0                       # What read queue length does an incoming req see
system.mem_ctrls.rdQLenPdf::7                       0                       # What read queue length does an incoming req see
system.mem_ctrls.rdQLenPdf::8                       0                       # What read queue length does an incoming req see
system.mem_ctrls.rdQLenPdf::9                       0                       # What read queue length does an incoming req see
system.mem_ctrls.rdQLenPdf::10                      0                       # What read queue length does an incoming req see
system.mem_ctrls.rdQLenPdf::11                      0                       # What read queue length does an incoming req see
system.mem_ctrls.rdQLenPdf::12                      0                       # What read queue length does an incoming req see
system.mem_ctrls.rdQLenPdf::13                      0                       # What read queue length does an incoming req see
system.mem_ctrls.rdQLenPdf::14                      0                       # What read queue length does an incoming req see
system.mem_ctrls.rdQLenPdf::15                      0                       # What read queue length does an incoming req see
system.mem_ctrls.rdQLenPdf::16                      0                       # What read queue length does an incoming req see
system.mem_ctrls.rdQLenPdf::17                      0                       # What read queue length does an incoming req see
system.mem_ctrls.rdQLenPdf::18                      0                       # What read queue length does an incoming req see
system.mem_ctrls.rdQLenPdf::19                      0                       # What read queue length does an incoming req see
system.mem_ctrls.rdQLenPdf::20                      0                       # What read queue length does an incoming req see
system.mem_ctrls.rdQLenPdf::21                      0                       # What read queue length does an incoming req see
system.mem_ctrls.rdQLenPdf::22                      0                       # What read queue length does an incoming req see
system.mem_ctrls.rdQLenPdf::23                      0                       # What read queue length does an incoming req see
system.mem_ctrls.rdQLenPdf::24                      0                       # What read queue length does an incoming req see
system.mem_ctrls.rdQLenPdf::25                      0                       # What read queue length does an incoming req see
system.mem_ctrls.rdQLenPdf::26                      0                       # What read queue length does an incoming req see
system.mem_ctrls.rdQLenPdf::27                      0                       # What read queue length does an incoming req see
system.mem_ctrls.rdQLenPdf::28                      0                       # What read queue length does an incoming req see
system.mem_ctrls.rdQLenPdf::29                      0                       # What read queue length does an incoming req see
system.mem_ctrls.rdQLenPdf::30                      0                       # What read queue length does an incoming req see
system.mem_ctrls.rdQLenPdf::31                      0                       # What read queue length does an incoming req see
system.mem_ctrls.wrQLenPdf::0                       0                       # What write queue length does an incoming req see
system.mem_ctrls.wrQLenPdf::1                       0                       # What write queue length does an incoming req see
system.mem_ctrls.wrQLenPdf::2                       0                       # What write queue length does an incoming req see
system.mem_ctrls.wrQLenPdf::3                       0                       # What write queue length does an incoming req see
system.mem_ctrls.wrQLenPdf::4                       0                       # What write queue length does an incoming req see
system.mem_ctrls.wrQLenPdf::5                       0                       # What write queue length does an incoming req see
system.mem_ctrls.wrQLenPdf::6                       0                       # What write queue length does an incoming req see
system.mem_ctrls.wrQLenPdf::7                       0                       # What write queue length does an incoming req see
system.mem_ctrls.wrQLenPdf::8                       0                       # What write queue length does an incoming req see
system.mem_ctrls.wrQLenPdf::9                       0                       # What write queue length does an incoming req see
system.mem_ctrls.wrQLenPdf::10                      0                       # What write queue length does an incoming req see
system.mem_ctrls.wrQLenPdf::11                      0                       # What write queue length does an incoming req see
system.mem_ctrls.wrQLenPdf::12                      0                       # What write queue length does an incoming req see
system.mem_ctrls.wrQLenPdf::13                      0                       # What write queue length does an incoming req see
system.mem_ctrls.wrQLenPdf::14                      0                       # What write queue length does an incoming req see
system.mem_ctrls.wrQLenPdf::15                   1331                       # What write queue length does an incoming req see
system.mem_ctrls.wrQLenPdf::16                   1632                       # What write queue length does an incoming req see
system.mem_ctrls.wrQLenPdf::17                 113314                       # What write queue length does an incoming req see
system.mem_ctrls.wrQLenPdf::18                 116136                       # What write queue length does an incoming req see
system.mem_ctrls.wrQLenPdf::19                 116212                       # What write queue length does an incoming req see
system.mem_ctrls.wrQLenPdf::20                 116233                       # What write queue length does an incoming req see
system.mem_ctrls.wrQLenPdf::21                 116269                       # What write queue length does an incoming req see
system.mem_ctrls.wrQLenPdf::22                 116298                       # What write queue length does an incoming req see
system.mem_ctrls.wrQLenPdf::23                 116361                       # What write queue length does an incoming req see
system.mem_ctrls.wrQLenPdf::24                 116340                       # What write queue length does an incoming req see
system.mem_ctrls.wrQLenPdf::25                 116342                       # What write queue length does an incoming req see
system.mem_ctrls.wrQLenPdf::26                 116279                       # What write queue length does an incoming req see
system.mem_ctrls.wrQLenPdf::27                 116247                       # What write queue length does an incoming req see
system.mem_ctrls.wrQLenPdf::28                 116208                       # What write queue length does an incoming req see
system.mem_ctrls.wrQLenPdf::29                 116127                       # What write queue length does an incoming req see
system.mem_ctrls.wrQLenPdf::30                 116085                       # What write queue length does an incoming req see
system.mem_ctrls.wrQLenPdf::31                 116056                       # What write queue length does an incoming req see
system.mem_ctrls.wrQLenPdf::32                 116032                       # What write queue length does an incoming req see
system.mem_ctrls.wrQLenPdf::33                     26                       # What write queue length does an incoming req see
system.mem_ctrls.wrQLenPdf::34                      0                       # What write queue length does an incoming req see
system.mem_ctrls.wrQLenPdf::35                      0                       # What write queue length does an incoming req see
system.mem_ctrls.wrQLenPdf::36                      0                       # What write queue length does an incoming req see
system.mem_ctrls.wrQLenPdf::37                      0                       # What write queue length does an incoming req see
system.mem_ctrls.wrQLenPdf::38                      0                       # What write queue length does an incoming req see
system.mem_ctrls.wrQLenPdf::39                      0                       # What write queue length does an incoming req see
system.mem_ctrls.wrQLenPdf::40                      0                       # What write queue length does an incoming req see
system.mem_ctrls.wrQLenPdf::41                      0                       # What write queue length does an incoming req see
system.mem_ctrls.wrQLenPdf::42                      0                       # What write queue length does an incoming req see
system.mem_ctrls.wrQLenPdf::43                      0                       # What write queue length does an incoming req see
system.mem_ctrls.wrQLenPdf::44                      0                       # What write queue length does an incoming req see
system.mem_ctrls.wrQLenPdf::45                      0                       # What write queue length does an incoming req see
system.mem_ctrls.wrQLenPdf::46                      0                       # What write queue length does an incoming req see
system.mem_ctrls.wrQLenPdf::47                      0                       # What write queue length does an incoming req see
system.mem_ctrls.wrQLenPdf::48                      0                       # What write queue length does an incoming req see
system.mem_ctrls.wrQLenPdf::49                      0                       # What write queue length does an incoming req see
system.mem_ctrls.wrQLenPdf::50                      0                       # What write queue length does an incoming req see
system.mem_ctrls.wrQLenPdf::51                      0                       # What write queue length does an incoming req see
system.mem_ctrls.wrQLenPdf::52                      0                       # What write queue length does an incoming req see
system.mem_ctrls.wrQLenPdf::53                      0                       # What write queue length does an incoming req see
system.mem_ctrls.wrQLenPdf::54                      0                       # What write queue length does an incoming req see
system.mem_ctrls.wrQLenPdf::55                      0                       # What write queue length does an incoming req see
system.mem_ctrls.wrQLenPdf::56                      0                       # What write queue length does an incoming req see
system.mem_ctrls.wrQLenPdf::57                      0                       # What write queue length does an incoming req see
system.mem_ctrls.wrQLenPdf::58                      0                       # What write queue length does an incoming req see
system.mem_ctrls.wrQLenPdf::59                      0                       # What write queue length does an incoming req see
system.mem_ctrls.wrQLenPdf::60                      0                       # What write queue length does an incoming req see
system.mem_ctrls.wrQLenPdf::61                      0                       # What write queue length does an incoming req see
system.mem_ctrls.wrQLenPdf::62                      0                       # What write queue length does an incoming req see
system.mem_ctrls.wrQLenPdf::63                      0                       # What write queue length does an incoming req see
system.mem_ctrls.bytesPerActivate::samples      2439182                       # Bytes accessed per row activation
system.mem_ctrls.bytesPerActivate::mean    125.741276                       # Bytes accessed per row activation
system.mem_ctrls.bytesPerActivate::gmean    89.405099                       # Bytes accessed per row activation
system.mem_ctrls.bytesPerActivate::stdev   165.216862                       # Bytes accessed per row activation
system.mem_ctrls.bytesPerActivate::0-127      1796963     73.67%     73.67% # Bytes accessed per row activation
system.mem_ctrls.bytesPerActivate::128-255       385615     15.81%     89.48% # Bytes accessed per row activation
system.mem_ctrls.bytesPerActivate::256-383        77420      3.17%     92.65% # Bytes accessed per row activation
system.mem_ctrls.bytesPerActivate::384-511        54653      2.24%     94.89% # Bytes accessed per row activation
system.mem_ctrls.bytesPerActivate::512-639        41529      1.70%     96.60% # Bytes accessed per row activation
system.mem_ctrls.bytesPerActivate::640-767        27482      1.13%     97.72% # Bytes accessed per row activation
system.mem_ctrls.bytesPerActivate::768-895        15498      0.64%     98.36% # Bytes accessed per row activation
system.mem_ctrls.bytesPerActivate::896-1023        10421      0.43%     98.79% # Bytes accessed per row activation
system.mem_ctrls.bytesPerActivate::1024-1151        29601      1.21%    100.00% # Bytes accessed per row activation
system.mem_ctrls.bytesPerActivate::total      2439182                       # Bytes accessed per row activation
system.mem_ctrls.rdPerTurnAround::samples       116024                       # Reads before turning the bus around for writes
system.mem_ctrls.rdPerTurnAround::mean      25.277106                       # Reads before turning the bus around for writes
system.mem_ctrls.rdPerTurnAround::gmean     23.289229                       # Reads before turning the bus around for writes
system.mem_ctrls.rdPerTurnAround::stdev     14.348949                       # Reads before turning the bus around for writes
system.mem_ctrls.rdPerTurnAround::0-7              11      0.01%      0.01% # Reads before turning the bus around for writes
system.mem_ctrls.rdPerTurnAround::8-15           2253      1.94%      1.95% # Reads before turning the bus around for writes
system.mem_ctrls.rdPerTurnAround::16-23         65562     56.51%     58.46% # Reads before turning the bus around for writes
system.mem_ctrls.rdPerTurnAround::24-31         29094     25.08%     83.53% # Reads before turning the bus around for writes
system.mem_ctrls.rdPerTurnAround::32-39         11058      9.53%     93.07% # Reads before turning the bus around for writes
system.mem_ctrls.rdPerTurnAround::40-47          3533      3.05%     96.11% # Reads before turning the bus around for writes
system.mem_ctrls.rdPerTurnAround::48-55          1502      1.29%     97.40% # Reads before turning the bus around for writes
system.mem_ctrls.rdPerTurnAround::56-63           800      0.69%     98.09% # Reads before turning the bus around for writes
system.mem_ctrls.rdPerTurnAround::64-71           476      0.41%     98.50% # Reads before turning the bus around for writes
system.mem_ctrls.rdPerTurnAround::72-79           384      0.33%     98.84% # Reads before turning the bus around for writes
system.mem_ctrls.rdPerTurnAround::80-87           283      0.24%     99.08% # Reads before turning the bus around for writes
system.mem_ctrls.rdPerTurnAround::88-95           159      0.14%     99.22% # Reads before turning the bus around for writes
system.mem_ctrls.rdPerTurnAround::96-103           96      0.08%     99.30% # Reads before turning the bus around for writes
system.mem_ctrls.rdPerTurnAround::104-111           74      0.06%     99.36% # Reads before turning the bus around for writes
system.mem_ctrls.rdPerTurnAround::112-119           72      0.06%     99.43% # Reads before turning the bus around for writes
system.mem_ctrls.rdPerTurnAround::120-127           66      0.06%     99.48% # Reads before turning the bus around for writes
system.mem_ctrls.rdPerTurnAround::128-135           74      0.06%     99.55% # Reads before turning the bus around for writes
system.mem_ctrls.rdPerTurnAround::136-143           86      0.07%     99.62% # Reads before turning the bus around for writes
system.mem_ctrls.rdPerTurnAround::144-151          105      0.09%     99.71% # Reads before turning the bus around for writes
system.mem_ctrls.rdPerTurnAround::152-159           93      0.08%     99.79% # Reads before turning the bus around for writes
system.mem_ctrls.rdPerTurnAround::160-167           78      0.07%     99.86% # Reads before turning the bus around for writes
system.mem_ctrls.rdPerTurnAround::168-175           77      0.07%     99.92% # Reads before turning the bus around for writes
system.mem_ctrls.rdPerTurnAround::176-183           42      0.04%     99.96% # Reads before turning the bus around for writes
system.mem_ctrls.rdPerTurnAround::184-191           18      0.02%     99.98% # Reads before turning the bus around for writes
system.mem_ctrls.rdPerTurnAround::192-199           14      0.01%     99.99% # Reads before turning the bus around for writes
system.mem_ctrls.rdPerTurnAround::200-207            7      0.01%     99.99% # Reads before turning the bus around for writes
system.mem_ctrls.rdPerTurnAround::208-215            5      0.00%    100.00% # Reads before turning the bus around for writes
system.mem_ctrls.rdPerTurnAround::216-223            2      0.00%    100.00% # Reads before turning the bus around for writes
system.mem_ctrls.rdPerTurnAround::total        116024                       # Reads before turning the bus around for writes
system.mem_ctrls.wrPerTurnAround::samples       116024                       # Writes before turning the bus around for reads
system.mem_ctrls.wrPerTurnAround::mean      16.027038                       # Writes before turning the bus around for reads
system.mem_ctrls.wrPerTurnAround::gmean     16.025516                       # Writes before turning the bus around for reads
system.mem_ctrls.wrPerTurnAround::stdev      0.229673                       # Writes before turning the bus around for reads
system.mem_ctrls.wrPerTurnAround::16           114378     98.58%     98.58% # Writes before turning the bus around for reads
system.mem_ctrls.wrPerTurnAround::17              197      0.17%     98.75% # Writes before turning the bus around for reads
system.mem_ctrls.wrPerTurnAround::18             1408      1.21%     99.96% # Writes before turning the bus around for reads
system.mem_ctrls.wrPerTurnAround::19               40      0.03%    100.00% # Writes before turning the bus around for reads
system.mem_ctrls.wrPerTurnAround::20                1      0.00%    100.00% # Writes before turning the bus around for reads
system.mem_ctrls.wrPerTurnAround::total        116024                       # Writes before turning the bus around for reads
system.mem_ctrls.totQLat                  68024304680                       # Total ticks spent queuing
system.mem_ctrls.totMemAccLat            123013460930                       # Total ticks spent from burst creation until serviced by the DRAM
system.mem_ctrls.totBusLat                14663775000                       # Total ticks spent in databus transfers
system.mem_ctrls.avgQLat                     23194.68                       # Average queueing delay per DRAM burst
system.mem_ctrls.avgBusLat                    5000.00                       # Average bus latency per DRAM burst
system.mem_ctrls.avgMemAccLat                41944.68                       # Average memory access latency per DRAM burst
system.mem_ctrls.avgRdBW                       153.25                       # Average DRAM read bandwidth in MiByte/s
system.mem_ctrls.avgWrBW                        97.17                       # Average achieved write bandwidth in MiByte/s
system.mem_ctrls.avgRdBWSys                    154.94                       # Average system read bandwidth in MiByte/s
system.mem_ctrls.avgWrBWSys                     97.17                       # Average system write bandwidth in MiByte/s
system.mem_ctrls.peakBW                      12800.00                       # Theoretical peak bandwidth in MiByte/s
system.mem_ctrls.busUtil                         1.96                       # Data bus utilization in percentage
system.mem_ctrls.busUtilRead                     1.20                       # Data bus utilization in percentage for reads
system.mem_ctrls.busUtilWrite                    0.76                       # Data bus utilization in percentage for writes
system.mem_ctrls.avgRdQLen                       1.00                       # Average read queue length when enqueuing
system.mem_ctrls.avgWrQLen                      25.57                       # Average write queue length when enqueuing
system.mem_ctrls.readRowHits                  1546070                       # Number of row buffer hits during reads
system.mem_ctrls.writeRowHits                  807025                       # Number of row buffer hits during writes
system.mem_ctrls.readRowHitRate                 52.72                       # Row buffer hit rate for reads
system.mem_ctrls.writeRowHitRate                43.40                       # Row buffer hit rate for writes
system.mem_ctrls.avgGap                     253859.47                       # Average gap between requests
system.mem_ctrls.pageHitRate                    49.10                       # Row buffer hit rate, read and write combined
system.mem_ctrls_0.actEnergy               9310071960                       # Energy for activate commands per rank (pJ)
system.mem_ctrls_0.preEnergy               5079900375                       # Energy for precharge commands per rank (pJ)
system.mem_ctrls_0.readEnergy             11582851800                       # Energy for read commands per rank (pJ)
system.mem_ctrls_0.writeEnergy             6044991120                       # Energy for write commands per rank (pJ)
system.mem_ctrls_0.refreshEnergy          80434866720                       # Energy for refresh commands per rank (pJ)
system.mem_ctrls_0.actBackEnergy         287120867400                       # Energy for active background per rank (pJ)
system.mem_ctrls_0.preBackEnergy         487033069500                       # Energy for precharge background per rank (pJ)
system.mem_ctrls_0.totalEnergy           886606618875                       # Total energy per rank (pJ)
system.mem_ctrls_0.averagePower            719.946766                       # Core power per rank (mW)
system.mem_ctrls_0.memoryStateTime::IDLE 802607742251                       # Time in different power states
system.mem_ctrls_0.memoryStateTime::REF   40897220000                       # Time in different power states
system.mem_ctrls_0.memoryStateTime::PRE_PDN            0                       # Time in different power states
system.mem_ctrls_0.memoryStateTime::ACT  381248813249                       # Time in different power states
system.mem_ctrls_0.memoryStateTime::ACT_PDN            0                       # Time in different power states
system.mem_ctrls_1.actEnergy               9177318360                       # Energy for activate commands per rank (pJ)
system.mem_ctrls_1.preEnergy               5007465375                       # Energy for precharge commands per rank (pJ)
system.mem_ctrls_1.readEnergy             11494938000                       # Energy for read commands per rank (pJ)
system.mem_ctrls_1.writeEnergy             6016608720                       # Energy for write commands per rank (pJ)
system.mem_ctrls_1.refreshEnergy          80434866720                       # Energy for refresh commands per rank (pJ)
system.mem_ctrls_1.actBackEnergy         282536588250                       # Energy for active background per rank (pJ)
system.mem_ctrls_1.preBackEnergy         491054367000                       # Energy for precharge background per rank (pJ)
system.mem_ctrls_1.totalEnergy           885722152425                       # Total energy per rank (pJ)
system.mem_ctrls_1.averagePower            719.228558                       # Core power per rank (mW)
system.mem_ctrls_1.memoryStateTime::IDLE 809520157750                       # Time in different power states
system.mem_ctrls_1.memoryStateTime::REF   40897220000                       # Time in different power states
system.mem_ctrls_1.memoryStateTime::PRE_PDN            0                       # Time in different power states
system.mem_ctrls_1.memoryStateTime::ACT  374330543250                       # Time in different power states
system.mem_ctrls_1.memoryStateTime::ACT_PDN            0                       # Time in different power states
system.cpu_voltage_domain.voltage                   1                       # Voltage in Volts
system.cpu_clk_domain.clock                       500                       # Clock period in ticks
system.cpu0.apic_clk_domain.clock                8000                       # Clock period in ticks
system.cpu0.numCycles                      2447392931                       # number of cpu cycles simulated
system.cpu0.numWorkItemsStarted                     0                       # number of work items this cpu started
system.cpu0.numWorkItemsCompleted                   0                       # number of work items this cpu completed
system.cpu0.kern.inst.arm                           0                       # number of arm instructions executed
system.cpu0.kern.inst.quiesce                       0                       # number of quiesce instructions executed
system.cpu0.committedInsts                    3046285                       # Number of instructions committed
system.cpu0.committedOps                      6089637                       # Number of ops (including micro ops) committed
system.cpu0.num_int_alu_accesses              5983454                       # Number of integer alu accesses
system.cpu0.num_fp_alu_accesses                  1826                       # Number of float alu accesses
system.cpu0.num_func_calls                     160440                       # number of times a function call or return occured
system.cpu0.num_conditional_control_insts       503654                       # number of instructions that are conditional controls
system.cpu0.num_int_insts                     5983454                       # number of integer instructions
system.cpu0.num_fp_insts                         1826                       # number of float instructions
system.cpu0.num_int_register_reads           11922672                       # number of times the integer registers were read
system.cpu0.num_int_register_writes           4862806                       # number of times the integer registers were written
system.cpu0.num_fp_register_reads                3068                       # number of times the floating registers were read
system.cpu0.num_fp_register_writes               1448                       # number of times the floating registers were written
system.cpu0.num_cc_register_reads             3799749                       # number of times the CC registers were read
system.cpu0.num_cc_register_writes            2081598                       # number of times the CC registers were written
system.cpu0.num_mem_refs                      1374053                       # number of memory refs
system.cpu0.num_load_insts                     885979                       # Number of load instructions
system.cpu0.num_store_insts                    488074                       # Number of store instructions
system.cpu0.num_idle_cycles              2431288325.900846                       # Number of idle cycles
system.cpu0.num_busy_cycles              16104605.099153                       # Number of busy cycles
system.cpu0.not_idle_fraction                0.006580                       # Percentage of non-idle cycles
system.cpu0.idle_fraction                    0.993420                       # Percentage of idle cycles
system.cpu0.Branches                           693543                       # Number of branches fetched
system.cpu0.op_class::No_OpClass                40547      0.67%      0.67% # Class of executed instruction
system.cpu0.op_class::IntAlu                  4656566     76.47%     77.13% # Class of executed instruction
system.cpu0.op_class::IntMult                    5000      0.08%     77.21% # Class of executed instruction
system.cpu0.op_class::IntDiv                    12185      0.20%     77.41% # Class of executed instruction
system.cpu0.op_class::FloatAdd                   1376      0.02%     77.44% # Class of executed instruction
system.cpu0.op_class::FloatCmp                      0      0.00%     77.44% # Class of executed instruction
system.cpu0.op_class::FloatCvt                      0      0.00%     77.44% # Class of executed instruction
system.cpu0.op_class::FloatMult                     0      0.00%     77.44% # Class of executed instruction
system.cpu0.op_class::FloatDiv                      0      0.00%     77.44% # Class of executed instruction
system.cpu0.op_class::FloatSqrt                     0      0.00%     77.44% # Class of executed instruction
system.cpu0.op_class::SimdAdd                       0      0.00%     77.44% # Class of executed instruction
system.cpu0.op_class::SimdAddAcc                    0      0.00%     77.44% # Class of executed instruction
system.cpu0.op_class::SimdAlu                       0      0.00%     77.44% # Class of executed instruction
system.cpu0.op_class::SimdCmp                       0      0.00%     77.44% # Class of executed instruction
system.cpu0.op_class::SimdCvt                       0      0.00%     77.44% # Class of executed instruction
system.cpu0.op_class::SimdMisc                      0      0.00%     77.44% # Class of executed instruction
system.cpu0.op_class::SimdMult                      0      0.00%     77.44% # Class of executed instruction
system.cpu0.op_class::SimdMultAcc                   0      0.00%     77.44% # Class of executed instruction
system.cpu0.op_class::SimdShift                     0      0.00%     77.44% # Class of executed instruction
system.cpu0.op_class::SimdShiftAcc                  0      0.00%     77.44% # Class of executed instruction
system.cpu0.op_class::SimdSqrt                      0      0.00%     77.44% # Class of executed instruction
system.cpu0.op_class::SimdFloatAdd                  0      0.00%     77.44% # Class of executed instruction
system.cpu0.op_class::SimdFloatAlu                  0      0.00%     77.44% # Class of executed instruction
system.cpu0.op_class::SimdFloatCmp                  0      0.00%     77.44% # Class of executed instruction
system.cpu0.op_class::SimdFloatCvt                  0      0.00%     77.44% # Class of executed instruction
system.cpu0.op_class::SimdFloatDiv                  0      0.00%     77.44% # Class of executed instruction
system.cpu0.op_class::SimdFloatMisc                 0      0.00%     77.44% # Class of executed instruction
system.cpu0.op_class::SimdFloatMult                 0      0.00%     77.44% # Class of executed instruction
system.cpu0.op_class::SimdFloatMultAcc              0      0.00%     77.44% # Class of executed instruction
system.cpu0.op_class::SimdFloatSqrt                 0      0.00%     77.44% # Class of executed instruction
system.cpu0.op_class::MemRead                  885979     14.55%     91.99% # Class of executed instruction
system.cpu0.op_class::MemWrite                 488074      8.01%    100.00% # Class of executed instruction
system.cpu0.op_class::IprAccess                     0      0.00%    100.00% # Class of executed instruction
system.cpu0.op_class::InstPrefetch                  0      0.00%    100.00% # Class of executed instruction
system.cpu0.op_class::total                   6089727                       # Class of executed instruction
system.cpu1.apic_clk_domain.clock                8000                       # Clock period in ticks
system.cpu1.numCycles                      2452749624                       # number of cpu cycles simulated
system.cpu1.numWorkItemsStarted                     0                       # number of work items this cpu started
system.cpu1.numWorkItemsCompleted                   0                       # number of work items this cpu completed
system.cpu1.kern.inst.arm                           0                       # number of arm instructions executed
system.cpu1.kern.inst.quiesce                       0                       # number of quiesce instructions executed
system.cpu1.committedInsts                     896657                       # Number of instructions committed
system.cpu1.committedOps                      1927268                       # Number of ops (including micro ops) committed
system.cpu1.num_int_alu_accesses              1886357                       # Number of integer alu accesses
system.cpu1.num_fp_alu_accesses                    39                       # Number of float alu accesses
system.cpu1.num_func_calls                      55958                       # number of times a function call or return occured
system.cpu1.num_conditional_control_insts       129015                       # number of instructions that are conditional controls
system.cpu1.num_int_insts                     1886357                       # number of integer instructions
system.cpu1.num_fp_insts                           39                       # number of float instructions
system.cpu1.num_int_register_reads            3843885                       # number of times the integer registers were read
system.cpu1.num_int_register_writes           1557073                       # number of times the integer registers were written
system.cpu1.num_fp_register_reads                  63                       # number of times the floating registers were read
system.cpu1.num_fp_register_writes                 31                       # number of times the floating registers were written
system.cpu1.num_cc_register_reads             1024178                       # number of times the CC registers were read
system.cpu1.num_cc_register_writes             559438                       # number of times the CC registers were written
system.cpu1.num_mem_refs                       466065                       # number of memory refs
system.cpu1.num_load_insts                     289519                       # Number of load instructions
system.cpu1.num_store_insts                    176546                       # Number of store instructions
system.cpu1.num_idle_cycles              2446201256.239543                       # Number of idle cycles
system.cpu1.num_busy_cycles              6548367.760457                       # Number of busy cycles
system.cpu1.not_idle_fraction                0.002670                       # Percentage of non-idle cycles
system.cpu1.idle_fraction                    0.997330                       # Percentage of idle cycles
system.cpu1.Branches                           202906                       # Number of branches fetched
system.cpu1.op_class::No_OpClass                31237      1.62%      1.62% # Class of executed instruction
system.cpu1.op_class::IntAlu                  1415702     73.46%     75.08% # Class of executed instruction
system.cpu1.op_class::IntMult                    3687      0.19%     75.27% # Class of executed instruction
system.cpu1.op_class::IntDiv                    10569      0.55%     75.82% # Class of executed instruction
system.cpu1.op_class::FloatAdd                     30      0.00%     75.82% # Class of executed instruction
system.cpu1.op_class::FloatCmp                      0      0.00%     75.82% # Class of executed instruction
system.cpu1.op_class::FloatCvt                      0      0.00%     75.82% # Class of executed instruction
system.cpu1.op_class::FloatMult                     0      0.00%     75.82% # Class of executed instruction
system.cpu1.op_class::FloatDiv                      0      0.00%     75.82% # Class of executed instruction
system.cpu1.op_class::FloatSqrt                     0      0.00%     75.82% # Class of executed instruction
system.cpu1.op_class::SimdAdd                       0      0.00%     75.82% # Class of executed instruction
system.cpu1.op_class::SimdAddAcc                    0      0.00%     75.82% # Class of executed instruction
system.cpu1.op_class::SimdAlu                       0      0.00%     75.82% # Class of executed instruction
system.cpu1.op_class::SimdCmp                       0      0.00%     75.82% # Class of executed instruction
system.cpu1.op_class::SimdCvt                       0      0.00%     75.82% # Class of executed instruction
system.cpu1.op_class::SimdMisc                      0      0.00%     75.82% # Class of executed instruction
system.cpu1.op_class::SimdMult                      0      0.00%     75.82% # Class of executed instruction
system.cpu1.op_class::SimdMultAcc                   0      0.00%     75.82% # Class of executed instruction
system.cpu1.op_class::SimdShift                     0      0.00%     75.82% # Class of executed instruction
system.cpu1.op_class::SimdShiftAcc                  0      0.00%     75.82% # Class of executed instruction
system.cpu1.op_class::SimdSqrt                      0      0.00%     75.82% # Class of executed instruction
system.cpu1.op_class::SimdFloatAdd                  0      0.00%     75.82% # Class of executed instruction
system.cpu1.op_class::SimdFloatAlu                  0      0.00%     75.82% # Class of executed instruction
system.cpu1.op_class::SimdFloatCmp                  0      0.00%     75.82% # Class of executed instruction
system.cpu1.op_class::SimdFloatCvt                  0      0.00%     75.82% # Class of executed instruction
system.cpu1.op_class::SimdFloatDiv                  0      0.00%     75.82% # Class of executed instruction
system.cpu1.op_class::SimdFloatMisc                 0      0.00%     75.82% # Class of executed instruction
system.cpu1.op_class::SimdFloatMult                 0      0.00%     75.82% # Class of executed instruction
system.cpu1.op_class::SimdFloatMultAcc              0      0.00%     75.82% # Class of executed instruction
system.cpu1.op_class::SimdFloatSqrt                 0      0.00%     75.82% # Class of executed instruction
system.cpu1.op_class::MemRead                  289519     15.02%     90.84% # Class of executed instruction
system.cpu1.op_class::MemWrite                 176546      9.16%    100.00% # Class of executed instruction
system.cpu1.op_class::IprAccess                     0      0.00%    100.00% # Class of executed instruction
system.cpu1.op_class::InstPrefetch                  0      0.00%    100.00% # Class of executed instruction
system.cpu1.op_class::total                   1927290                       # Class of executed instruction
system.cpu2.apic_clk_domain.clock                8000                       # Clock period in ticks
system.cpu2.numCycles                      2451501443                       # number of cpu cycles simulated
system.cpu2.numWorkItemsStarted                     0                       # number of work items this cpu started
system.cpu2.numWorkItemsCompleted                   0                       # number of work items this cpu completed
system.cpu2.kern.inst.arm                           0                       # number of arm instructions executed
system.cpu2.kern.inst.quiesce                       0                       # number of quiesce instructions executed
system.cpu2.committedInsts                  533875313                       # Number of instructions committed
system.cpu2.committedOps                    709221688                       # Number of ops (including micro ops) committed
system.cpu2.num_int_alu_accesses            508843977                       # Number of integer alu accesses
system.cpu2.num_fp_alu_accesses             331101068                       # Number of float alu accesses
system.cpu2.num_func_calls                     433947                       # number of times a function call or return occured
system.cpu2.num_conditional_control_insts     31469783                       # number of instructions that are conditional controls
system.cpu2.num_int_insts                   508843977                       # number of integer instructions
system.cpu2.num_fp_insts                    331101068                       # number of float instructions
system.cpu2.num_int_register_reads         1070197363                       # number of times the integer registers were read
system.cpu2.num_int_register_writes         339876008                       # number of times the integer registers were written
system.cpu2.num_fp_register_reads           564014582                       # number of times the floating registers were read
system.cpu2.num_fp_register_writes          276695748                       # number of times the floating registers were written
system.cpu2.num_cc_register_reads           220308179                       # number of times the CC registers were read
system.cpu2.num_cc_register_writes          241372378                       # number of times the CC registers were written
system.cpu2.num_mem_refs                    152849207                       # number of memory refs
system.cpu2.num_load_insts                   94768242                       # Number of load instructions
system.cpu2.num_store_insts                  58080965                       # Number of store instructions
system.cpu2.num_idle_cycles              10788940.426372                       # Number of idle cycles
system.cpu2.num_busy_cycles              2440712502.573628                       # Number of busy cycles
system.cpu2.not_idle_fraction                0.995599                       # Percentage of non-idle cycles
system.cpu2.idle_fraction                    0.004401                       # Percentage of idle cycles
system.cpu2.Branches                         33883274                       # Number of branches fetched
system.cpu2.op_class::No_OpClass               955479      0.13%      0.13% # Class of executed instruction
system.cpu2.op_class::IntAlu                444105483     62.62%     62.75% # Class of executed instruction
system.cpu2.op_class::IntMult                   24630      0.00%     62.76% # Class of executed instruction
system.cpu2.op_class::IntDiv                   145461      0.02%     62.78% # Class of executed instruction
system.cpu2.op_class::FloatAdd              111149730     15.67%     78.45% # Class of executed instruction
system.cpu2.op_class::FloatCmp                      0      0.00%     78.45% # Class of executed instruction
system.cpu2.op_class::FloatCvt                      0      0.00%     78.45% # Class of executed instruction
system.cpu2.op_class::FloatMult                     0      0.00%     78.45% # Class of executed instruction
system.cpu2.op_class::FloatDiv                      0      0.00%     78.45% # Class of executed instruction
system.cpu2.op_class::FloatSqrt                     0      0.00%     78.45% # Class of executed instruction
system.cpu2.op_class::SimdAdd                       0      0.00%     78.45% # Class of executed instruction
system.cpu2.op_class::SimdAddAcc                    0      0.00%     78.45% # Class of executed instruction
system.cpu2.op_class::SimdAlu                       0      0.00%     78.45% # Class of executed instruction
system.cpu2.op_class::SimdCmp                       0      0.00%     78.45% # Class of executed instruction
system.cpu2.op_class::SimdCvt                       0      0.00%     78.45% # Class of executed instruction
system.cpu2.op_class::SimdMisc                      0      0.00%     78.45% # Class of executed instruction
system.cpu2.op_class::SimdMult                      0      0.00%     78.45% # Class of executed instruction
system.cpu2.op_class::SimdMultAcc                   0      0.00%     78.45% # Class of executed instruction
system.cpu2.op_class::SimdShift                     0      0.00%     78.45% # Class of executed instruction
system.cpu2.op_class::SimdShiftAcc                  0      0.00%     78.45% # Class of executed instruction
system.cpu2.op_class::SimdSqrt                      0      0.00%     78.45% # Class of executed instruction
system.cpu2.op_class::SimdFloatAdd                  0      0.00%     78.45% # Class of executed instruction
system.cpu2.op_class::SimdFloatAlu                  0      0.00%     78.45% # Class of executed instruction
system.cpu2.op_class::SimdFloatCmp                  0      0.00%     78.45% # Class of executed instruction
system.cpu2.op_class::SimdFloatCvt                  0      0.00%     78.45% # Class of executed instruction
system.cpu2.op_class::SimdFloatDiv                  0      0.00%     78.45% # Class of executed instruction
system.cpu2.op_class::SimdFloatMisc                 0      0.00%     78.45% # Class of executed instruction
system.cpu2.op_class::SimdFloatMult                 0      0.00%     78.45% # Class of executed instruction
system.cpu2.op_class::SimdFloatMultAcc              0      0.00%     78.45% # Class of executed instruction
system.cpu2.op_class::SimdFloatSqrt                 0      0.00%     78.45% # Class of executed instruction
system.cpu2.op_class::MemRead                94768242     13.36%     91.81% # Class of executed instruction
system.cpu2.op_class::MemWrite               58080965      8.19%    100.00% # Class of executed instruction
system.cpu2.op_class::IprAccess                     0      0.00%    100.00% # Class of executed instruction
system.cpu2.op_class::InstPrefetch                  0      0.00%    100.00% # Class of executed instruction
system.cpu2.op_class::total                 709229990                       # Class of executed instruction
system.cpu3.apic_clk_domain.clock                8000                       # Clock period in ticks
system.cpu3.numCycles                      2447051871                       # number of cpu cycles simulated
system.cpu3.numWorkItemsStarted                     0                       # number of work items this cpu started
system.cpu3.numWorkItemsCompleted                   0                       # number of work items this cpu completed
system.cpu3.kern.inst.arm                           0                       # number of arm instructions executed
system.cpu3.kern.inst.quiesce                       0                       # number of quiesce instructions executed
system.cpu3.committedInsts                     933727                       # Number of instructions committed
system.cpu3.committedOps                      2005729                       # Number of ops (including micro ops) committed
system.cpu3.num_int_alu_accesses              1958446                       # Number of integer alu accesses
system.cpu3.num_fp_alu_accesses                     0                       # Number of float alu accesses
system.cpu3.num_func_calls                      54504                       # number of times a function call or return occured
system.cpu3.num_conditional_control_insts       144161                       # number of instructions that are conditional controls
system.cpu3.num_int_insts                     1958446                       # number of integer instructions
system.cpu3.num_fp_insts                            0                       # number of float instructions
system.cpu3.num_int_register_reads            3978873                       # number of times the integer registers were read
system.cpu3.num_int_register_writes           1624830                       # number of times the integer registers were written
system.cpu3.num_fp_register_reads                   0                       # number of times the floating registers were read
system.cpu3.num_fp_register_writes                  0                       # number of times the floating registers were written
system.cpu3.num_cc_register_reads             1131349                       # number of times the CC registers were read
system.cpu3.num_cc_register_writes             591137                       # number of times the CC registers were written
system.cpu3.num_mem_refs                       475061                       # number of memory refs
system.cpu3.num_load_insts                     297250                       # Number of load instructions
system.cpu3.num_store_insts                    177811                       # Number of store instructions
system.cpu3.num_idle_cycles              2440595434.373547                       # Number of idle cycles
system.cpu3.num_busy_cycles              6456436.626453                       # Number of busy cycles
system.cpu3.not_idle_fraction                0.002638                       # Percentage of non-idle cycles
system.cpu3.idle_fraction                    0.997362                       # Percentage of idle cycles
system.cpu3.Branches                           216452                       # Number of branches fetched
system.cpu3.op_class::No_OpClass                36578      1.82%      1.82% # Class of executed instruction
system.cpu3.op_class::IntAlu                  1476274     73.60%     75.43% # Class of executed instruction
system.cpu3.op_class::IntMult                    4659      0.23%     75.66% # Class of executed instruction
system.cpu3.op_class::IntDiv                    13160      0.66%     76.31% # Class of executed instruction
system.cpu3.op_class::FloatAdd                      0      0.00%     76.31% # Class of executed instruction
system.cpu3.op_class::FloatCmp                      0      0.00%     76.31% # Class of executed instruction
system.cpu3.op_class::FloatCvt                      0      0.00%     76.31% # Class of executed instruction
system.cpu3.op_class::FloatMult                     0      0.00%     76.31% # Class of executed instruction
system.cpu3.op_class::FloatDiv                      0      0.00%     76.31% # Class of executed instruction
system.cpu3.op_class::FloatSqrt                     0      0.00%     76.31% # Class of executed instruction
system.cpu3.op_class::SimdAdd                       0      0.00%     76.31% # Class of executed instruction
system.cpu3.op_class::SimdAddAcc                    0      0.00%     76.31% # Class of executed instruction
system.cpu3.op_class::SimdAlu                       0      0.00%     76.31% # Class of executed instruction
system.cpu3.op_class::SimdCmp                       0      0.00%     76.31% # Class of executed instruction
system.cpu3.op_class::SimdCvt                       0      0.00%     76.31% # Class of executed instruction
system.cpu3.op_class::SimdMisc                      0      0.00%     76.31% # Class of executed instruction
system.cpu3.op_class::SimdMult                      0      0.00%     76.31% # Class of executed instruction
system.cpu3.op_class::SimdMultAcc                   0      0.00%     76.31% # Class of executed instruction
system.cpu3.op_class::SimdShift                     0      0.00%     76.31% # Class of executed instruction
system.cpu3.op_class::SimdShiftAcc                  0      0.00%     76.31% # Class of executed instruction
system.cpu3.op_class::SimdSqrt                      0      0.00%     76.31% # Class of executed instruction
system.cpu3.op_class::SimdFloatAdd                  0      0.00%     76.31% # Class of executed instruction
system.cpu3.op_class::SimdFloatAlu                  0      0.00%     76.31% # Class of executed instruction
system.cpu3.op_class::SimdFloatCmp                  0      0.00%     76.31% # Class of executed instruction
system.cpu3.op_class::SimdFloatCvt                  0      0.00%     76.31% # Class of executed instruction
system.cpu3.op_class::SimdFloatDiv                  0      0.00%     76.31% # Class of executed instruction
system.cpu3.op_class::SimdFloatMisc                 0      0.00%     76.31% # Class of executed instruction
system.cpu3.op_class::SimdFloatMult                 0      0.00%     76.31% # Class of executed instruction
system.cpu3.op_class::SimdFloatMultAcc              0      0.00%     76.31% # Class of executed instruction
system.cpu3.op_class::SimdFloatSqrt                 0      0.00%     76.31% # Class of executed instruction
system.cpu3.op_class::MemRead                  297250     14.82%     91.13% # Class of executed instruction
system.cpu3.op_class::MemWrite                 177811      8.87%    100.00% # Class of executed instruction
system.cpu3.op_class::IprAccess                     0      0.00%    100.00% # Class of executed instruction
system.cpu3.op_class::InstPrefetch                  0      0.00%    100.00% # Class of executed instruction
system.cpu3.op_class::total                   2005732                       # Class of executed instruction
system.iobus.trans_dist::ReadReq                  706                       # Transaction distribution
system.iobus.trans_dist::ReadResp                 706                       # Transaction distribution
system.iobus.trans_dist::WriteReq                1487                       # Transaction distribution
system.iobus.trans_dist::WriteResp               1487                       # Transaction distribution
system.iobus.trans_dist::MessageReq                10                       # Transaction distribution
system.iobus.trans_dist::MessageResp               10                       # Transaction distribution
system.iobus.pkt_count_system.pc.south_bridge.io_apic.int_master::system.ruby.l1_cntrl1.sequencer.pio-slave-port            2                       # Packet count per connected master and slave (bytes)
system.iobus.pkt_count_system.pc.south_bridge.io_apic.int_master::system.ruby.l1_cntrl2.sequencer.pio-slave-port            2                       # Packet count per connected master and slave (bytes)
system.iobus.pkt_count_system.pc.south_bridge.io_apic.int_master::total            4                       # Packet count per connected master and slave (bytes)
system.iobus.pkt_count_system.ruby.l1_cntrl0.sequencer.mem-master-port::system.ruby.l1_cntrl0.sequencer.pio-slave-port          632                       # Packet count per connected master and slave (bytes)
system.iobus.pkt_count_system.ruby.l1_cntrl0.sequencer.mem-master-port::system.ruby.l1_cntrl1.sequencer.pio-slave-port            2                       # Packet count per connected master and slave (bytes)
system.iobus.pkt_count_system.ruby.l1_cntrl0.sequencer.mem-master-port::system.ruby.l1_cntrl2.sequencer.pio-slave-port            2                       # Packet count per connected master and slave (bytes)
system.iobus.pkt_count_system.ruby.l1_cntrl0.sequencer.mem-master-port::system.ruby.l1_cntrl3.sequencer.pio-slave-port            2                       # Packet count per connected master and slave (bytes)
system.iobus.pkt_count_system.ruby.l1_cntrl0.sequencer.mem-master-port::total          638                       # Packet count per connected master and slave (bytes)
system.iobus.pkt_count_system.ruby.l1_cntrl1.sequencer.mem-master-port::system.pc.south_bridge.io_apic.pio            6                       # Packet count per connected master and slave (bytes)
system.iobus.pkt_count_system.ruby.l1_cntrl1.sequencer.mem-master-port::system.pc.com_1.pio         1854                       # Packet count per connected master and slave (bytes)
system.iobus.pkt_count_system.ruby.l1_cntrl1.sequencer.mem-master-port::system.ruby.l1_cntrl1.sequencer.pio-slave-port          624                       # Packet count per connected master and slave (bytes)
system.iobus.pkt_count_system.ruby.l1_cntrl1.sequencer.mem-master-port::system.ruby.l1_cntrl2.sequencer.pio-slave-port            2                       # Packet count per connected master and slave (bytes)
system.iobus.pkt_count_system.ruby.l1_cntrl1.sequencer.mem-master-port::total         2486                       # Packet count per connected master and slave (bytes)
system.iobus.pkt_count_system.ruby.l1_cntrl2.sequencer.mem-master-port::system.pc.south_bridge.io_apic.pio            8                       # Packet count per connected master and slave (bytes)
system.iobus.pkt_count_system.ruby.l1_cntrl2.sequencer.mem-master-port::system.ruby.l1_cntrl1.sequencer.pio-slave-port            2                       # Packet count per connected master and slave (bytes)
system.iobus.pkt_count_system.ruby.l1_cntrl2.sequencer.mem-master-port::system.ruby.l1_cntrl2.sequencer.pio-slave-port          636                       # Packet count per connected master and slave (bytes)
system.iobus.pkt_count_system.ruby.l1_cntrl2.sequencer.mem-master-port::system.ruby.l1_cntrl3.sequencer.pio-slave-port            4                       # Packet count per connected master and slave (bytes)
system.iobus.pkt_count_system.ruby.l1_cntrl2.sequencer.mem-master-port::total          650                       # Packet count per connected master and slave (bytes)
system.iobus.pkt_count_system.ruby.l1_cntrl3.sequencer.mem-master-port::system.pc.com_1.pio            2                       # Packet count per connected master and slave (bytes)
system.iobus.pkt_count_system.ruby.l1_cntrl3.sequencer.mem-master-port::system.ruby.l1_cntrl0.sequencer.pio-slave-port            2                       # Packet count per connected master and slave (bytes)
system.iobus.pkt_count_system.ruby.l1_cntrl3.sequencer.mem-master-port::system.ruby.l1_cntrl3.sequencer.pio-slave-port          624                       # Packet count per connected master and slave (bytes)
system.iobus.pkt_count_system.ruby.l1_cntrl3.sequencer.mem-master-port::total          628                       # Packet count per connected master and slave (bytes)
system.iobus.pkt_count::total                    4406                       # Packet count per connected master and slave (bytes)
system.iobus.pkt_size_system.pc.south_bridge.io_apic.int_master::system.ruby.l1_cntrl1.sequencer.pio-slave-port            4                       # Cumulative packet size per connected master and slave (bytes)
system.iobus.pkt_size_system.pc.south_bridge.io_apic.int_master::system.ruby.l1_cntrl2.sequencer.pio-slave-port            4                       # Cumulative packet size per connected master and slave (bytes)
system.iobus.pkt_size_system.pc.south_bridge.io_apic.int_master::total            8                       # Cumulative packet size per connected master and slave (bytes)
system.iobus.pkt_size_system.ruby.l1_cntrl0.sequencer.mem-master-port::system.ruby.l1_cntrl0.sequencer.pio-slave-port         1264                       # Cumulative packet size per connected master and slave (bytes)
system.iobus.pkt_size_system.ruby.l1_cntrl0.sequencer.mem-master-port::system.ruby.l1_cntrl1.sequencer.pio-slave-port            4                       # Cumulative packet size per connected master and slave (bytes)
system.iobus.pkt_size_system.ruby.l1_cntrl0.sequencer.mem-master-port::system.ruby.l1_cntrl2.sequencer.pio-slave-port            4                       # Cumulative packet size per connected master and slave (bytes)
system.iobus.pkt_size_system.ruby.l1_cntrl0.sequencer.mem-master-port::system.ruby.l1_cntrl3.sequencer.pio-slave-port            4                       # Cumulative packet size per connected master and slave (bytes)
system.iobus.pkt_size_system.ruby.l1_cntrl0.sequencer.mem-master-port::total         1276                       # Cumulative packet size per connected master and slave (bytes)
system.iobus.pkt_size_system.ruby.l1_cntrl1.sequencer.mem-master-port::system.pc.south_bridge.io_apic.pio           12                       # Cumulative packet size per connected master and slave (bytes)
system.iobus.pkt_size_system.ruby.l1_cntrl1.sequencer.mem-master-port::system.pc.com_1.pio          927                       # Cumulative packet size per connected master and slave (bytes)
system.iobus.pkt_size_system.ruby.l1_cntrl1.sequencer.mem-master-port::system.ruby.l1_cntrl1.sequencer.pio-slave-port         1248                       # Cumulative packet size per connected master and slave (bytes)
system.iobus.pkt_size_system.ruby.l1_cntrl1.sequencer.mem-master-port::system.ruby.l1_cntrl2.sequencer.pio-slave-port            4                       # Cumulative packet size per connected master and slave (bytes)
system.iobus.pkt_size_system.ruby.l1_cntrl1.sequencer.mem-master-port::total         2191                       # Cumulative packet size per connected master and slave (bytes)
system.iobus.pkt_size_system.ruby.l1_cntrl2.sequencer.mem-master-port::system.pc.south_bridge.io_apic.pio           16                       # Cumulative packet size per connected master and slave (bytes)
system.iobus.pkt_size_system.ruby.l1_cntrl2.sequencer.mem-master-port::system.ruby.l1_cntrl1.sequencer.pio-slave-port            4                       # Cumulative packet size per connected master and slave (bytes)
system.iobus.pkt_size_system.ruby.l1_cntrl2.sequencer.mem-master-port::system.ruby.l1_cntrl2.sequencer.pio-slave-port         1272                       # Cumulative packet size per connected master and slave (bytes)
system.iobus.pkt_size_system.ruby.l1_cntrl2.sequencer.mem-master-port::system.ruby.l1_cntrl3.sequencer.pio-slave-port            8                       # Cumulative packet size per connected master and slave (bytes)
system.iobus.pkt_size_system.ruby.l1_cntrl2.sequencer.mem-master-port::total         1300                       # Cumulative packet size per connected master and slave (bytes)
system.iobus.pkt_size_system.ruby.l1_cntrl3.sequencer.mem-master-port::system.pc.com_1.pio            1                       # Cumulative packet size per connected master and slave (bytes)
system.iobus.pkt_size_system.ruby.l1_cntrl3.sequencer.mem-master-port::system.ruby.l1_cntrl0.sequencer.pio-slave-port            4                       # Cumulative packet size per connected master and slave (bytes)
system.iobus.pkt_size_system.ruby.l1_cntrl3.sequencer.mem-master-port::system.ruby.l1_cntrl3.sequencer.pio-slave-port         1248                       # Cumulative packet size per connected master and slave (bytes)
system.iobus.pkt_size_system.ruby.l1_cntrl3.sequencer.mem-master-port::total         1253                       # Cumulative packet size per connected master and slave (bytes)
system.iobus.pkt_size::total                     6028                       # Cumulative packet size per connected master and slave (bytes)
system.iobus.reqLayer8.occupancy                12998                       # Layer occupancy (ticks)
system.iobus.reqLayer8.utilization                0.0                       # Layer utilization (%)
system.iobus.reqLayer12.occupancy             1204500                       # Layer occupancy (ticks)
system.iobus.reqLayer12.utilization               0.0                       # Layer utilization (%)
system.iobus.reqLayer17.occupancy              699497                       # Layer occupancy (ticks)
system.iobus.reqLayer17.utilization               0.0                       # Layer utilization (%)
system.iobus.reqLayer18.occupancy              701000                       # Layer occupancy (ticks)
system.iobus.reqLayer18.utilization               0.0                       # Layer utilization (%)
system.iobus.reqLayer19.occupancy              838756                       # Layer occupancy (ticks)
system.iobus.reqLayer19.utilization               0.0                       # Layer utilization (%)
system.iobus.reqLayer20.occupancy              720500                       # Layer occupancy (ticks)
system.iobus.reqLayer20.utilization               0.0                       # Layer utilization (%)
system.iobus.respLayer0.occupancy                2500                       # Layer occupancy (ticks)
system.iobus.respLayer0.utilization               0.0                       # Layer utilization (%)
system.iobus.respLayer2.occupancy              480000                       # Layer occupancy (ticks)
system.iobus.respLayer2.utilization               0.0                       # Layer utilization (%)
system.iobus.respLayer4.occupancy             2096000                       # Layer occupancy (ticks)
system.iobus.respLayer4.utilization               0.0                       # Layer utilization (%)
system.iobus.respLayer6.occupancy              489500                       # Layer occupancy (ticks)
system.iobus.respLayer6.utilization               0.0                       # Layer utilization (%)
system.iobus.respLayer8.occupancy              471000                       # Layer occupancy (ticks)
system.iobus.respLayer8.utilization               0.0                       # Layer utilization (%)
system.pc.south_bridge.ide.disks.dma_read_full_pages            0                       # Number of full page size DMA reads (not PRD).
system.pc.south_bridge.ide.disks.dma_read_bytes            0                       # Number of bytes transfered via DMA reads (not PRD).
system.pc.south_bridge.ide.disks.dma_read_txs            0                       # Number of DMA read transactions (not PRD).
system.pc.south_bridge.ide.disks.dma_write_full_pages            0                       # Number of full page size DMA writes.
system.pc.south_bridge.ide.disks.dma_write_bytes            0                       # Number of bytes transfered via DMA writes.
system.pc.south_bridge.ide.disks.dma_write_txs            0                       # Number of DMA write transactions.
system.ruby.clk_domain.clock                      500                       # Clock period in ticks
system.ruby.delayHist::bucket_size                  4                       # delay histogram for all message
system.ruby.delayHist::max_bucket                  39                       # delay histogram for all message
system.ruby.delayHist::samples               52279779                       # delay histogram for all message
system.ruby.delayHist::mean                  0.947261                       # delay histogram for all message
system.ruby.delayHist::stdev                 2.584658                       # delay histogram for all message
system.ruby.delayHist                    |    46096037     88.17%     88.17% |        6703      0.01%     88.18% |     6175131     11.81%    100.00% |         511      0.00%    100.00% |        1371      0.00%    100.00% |           9      0.00%    100.00% |          14      0.00%    100.00% |           3      0.00%    100.00% |           0      0.00%    100.00% |           0      0.00%    100.00% # delay histogram for all message
system.ruby.delayHist::total                 52279779                       # delay histogram for all message
system.ruby.outstanding_req_hist_seqr::bucket_size            1                      
system.ruby.outstanding_req_hist_seqr::max_bucket            9                      
system.ruby.outstanding_req_hist_seqr::samples    936593091                      
system.ruby.outstanding_req_hist_seqr::mean     1.000000                      
system.ruby.outstanding_req_hist_seqr::gmean     1.000000                      
system.ruby.outstanding_req_hist_seqr::stdev     0.000507                      
system.ruby.outstanding_req_hist_seqr    |           0      0.00%      0.00% |   936592850    100.00%    100.00% |         241      0.00%    100.00% |           0      0.00%    100.00% |           0      0.00%    100.00% |           0      0.00%    100.00% |           0      0.00%    100.00% |           0      0.00%    100.00% |           0      0.00%    100.00% |           0      0.00%    100.00%
system.ruby.outstanding_req_hist_seqr::total    936593091                      
system.ruby.latency_hist_seqr::bucket_size          256                      
system.ruby.latency_hist_seqr::max_bucket         2559                      
system.ruby.latency_hist_seqr::samples      936593091                      
system.ruby.latency_hist_seqr::mean          1.634410                      
system.ruby.latency_hist_seqr::gmean         1.036671                      
system.ruby.latency_hist_seqr::stdev        11.147593                      
system.ruby.latency_hist_seqr            |   936425208     99.98%     99.98% |       67810      0.01%     99.99% |       80802      0.01%    100.00% |       14060      0.00%    100.00% |        3585      0.00%    100.00% |        1265      0.00%    100.00% |         282      0.00%    100.00% |          66      0.00%    100.00% |          12      0.00%    100.00% |           1      0.00%    100.00%
system.ruby.latency_hist_seqr::total        936593091                      
system.ruby.hit_latency_hist_seqr::bucket_size            1                      
system.ruby.hit_latency_hist_seqr::max_bucket            9                      
system.ruby.hit_latency_hist_seqr::samples    927260233                      
system.ruby.hit_latency_hist_seqr::mean             1                      
system.ruby.hit_latency_hist_seqr::gmean            1                      
system.ruby.hit_latency_hist_seqr        |           0      0.00%      0.00% |   927260233    100.00%    100.00% |           0      0.00%    100.00% |           0      0.00%    100.00% |           0      0.00%    100.00% |           0      0.00%    100.00% |           0      0.00%    100.00% |           0      0.00%    100.00% |           0      0.00%    100.00% |           0      0.00%    100.00%
system.ruby.hit_latency_hist_seqr::total    927260233                      
system.ruby.miss_latency_hist_seqr::bucket_size          256                      
system.ruby.miss_latency_hist_seqr::max_bucket         2559                      
system.ruby.miss_latency_hist_seqr::samples      9332858                      
system.ruby.miss_latency_hist_seqr::mean    64.665865                      
system.ruby.miss_latency_hist_seqr::gmean    37.121527                      
system.ruby.miss_latency_hist_seqr::stdev    91.967215                      
[...]
system.ruby.DMA_Controller.WriteRequest::total          128                      
system.ruby.DMA_Controller.Data          |           2    100.00%    100.00% |           0      0.00%    100.00%
system.ruby.DMA_Controller.Data::total              2                      
system.ruby.DMA_Controller.Ack           |         128    100.00%    100.00% |           0      0.00%    100.00%
system.ruby.DMA_Controller.Ack::total             128                      
system.ruby.DMA_Controller.READY.ReadRequest |           2    100.00%    100.00% |           0      0.00%    100.00%
system.ruby.DMA_Controller.READY.ReadRequest::total            2                      
system.ruby.DMA_Controller.READY.WriteRequest |         128    100.00%    100.00% |           0      0.00%    100.00%
system.ruby.DMA_Controller.READY.WriteRequest::total          128                      
system.ruby.DMA_Controller.BUSY_RD.Data  |           2    100.00%    100.00% |           0      0.00%    100.00%
system.ruby.DMA_Controller.BUSY_RD.Data::total            2                      
system.ruby.DMA_Controller.BUSY_WR.Ack   |         128    100.00%    100.00% |           0      0.00%    100.00%
system.ruby.DMA_Controller.BUSY_WR.Ack::total          128                      
system.ruby.L1Cache_Controller.Load      |     2538129      2.27%      2.27% |      801799      0.72%      2.98% |   108005081     96.45%     99.43% |      633351      0.57%    100.00%
system.ruby.L1Cache_Controller.Load::total    111978360                      
system.ruby.L1Cache_Controller.Ifetch    |    15295162      1.94%      1.94% |     4134438      0.53%      2.47% |   764605388     97.15%     99.62% |     2977341      0.38%    100.00%
system.ruby.L1Cache_Controller.Ifetch::total    787012329                      
system.ruby.L1Cache_Controller.Store     |     1961514      3.18%      3.18% |      635671      1.03%      4.21% |    58697543     95.07%     99.28% |      444717      0.72%    100.00%
system.ruby.L1Cache_Controller.Store::total     61739445                      
system.ruby.L1Cache_Controller.Inv       |       37227     26.45%     26.45% |       33065     23.49%     49.94% |       37378     26.55%     76.49% |       33087     23.51%    100.00%
system.ruby.L1Cache_Controller.Inv::total       140757                      
system.ruby.L1Cache_Controller.L1_Replacement |      151058      1.60%      1.60% |       75428      0.80%      2.40% |     9173201     97.09%     99.49% |       48027      0.51%    100.00%
system.ruby.L1Cache_Controller.L1_Replacement::total      9447714                      
system.ruby.L1Cache_Controller.Fwd_GETX  |         712     18.16%     18.16% |        1047     26.70%     44.86% |         983     25.07%     69.93% |        1179     30.07%    100.00%
system.ruby.L1Cache_Controller.Fwd_GETX::total         3921                      
system.ruby.L1Cache_Controller.Fwd_GETS  |        4251     29.40%     29.40% |        4030     27.87%     57.27% |        2317     16.02%     73.30% |        3861     26.70%    100.00%
system.ruby.L1Cache_Controller.Fwd_GETS::total        14459                      
system.ruby.L1Cache_Controller.Data      |         358     21.99%     21.99% |         375     23.03%     45.02% |         605     37.16%     82.19% |         290     17.81%    100.00%
system.ruby.L1Cache_Controller.Data::total         1628                      
system.ruby.L1Cache_Controller.Data_Exclusive |       76157      1.30%      1.30% |       26488      0.45%      1.75% |     5735086     98.00%     99.75% |       14624      0.25%    100.00%
system.ruby.L1Cache_Controller.Data_Exclusive::total      5852355                      
system.ruby.L1Cache_Controller.DataS_fromL1 |        3962     27.40%     27.40% |        4409     30.49%     57.89% |        2201     15.22%     73.12% |        3887     26.88%    100.00%
system.ruby.L1Cache_Controller.DataS_fromL1::total        14459                      
system.ruby.L1Cache_Controller.Data_all_Acks |       92628      2.53%      2.53% |       66247      1.81%      4.33% |     3453995     94.20%     98.54% |       53669      1.46%    100.00%
system.ruby.L1Cache_Controller.Data_all_Acks::total      3666539                      
system.ruby.L1Cache_Controller.Ack       |        7769     44.03%     44.03% |        3414     19.35%     63.38% |        3369     19.09%     82.48% |        3092     17.52%    100.00%
system.ruby.L1Cache_Controller.Ack::total        17644                      
system.ruby.L1Cache_Controller.Ack_all   |        3902     34.93%     34.93% |        2582     23.11%     58.04% |        2359     21.12%     79.16% |        2328     20.84%    100.00%
system.ruby.L1Cache_Controller.Ack_all::total        11171                      
system.ruby.L1Cache_Controller.WB_Ack    |      100114      1.08%      1.08% |       32653      0.35%      1.44% |     9102298     98.40%     99.84% |       15255      0.16%    100.00%
system.ruby.L1Cache_Controller.WB_Ack::total      9250320                      
system.ruby.L1Cache_Controller.NP.Load   |       80909      1.38%      1.38% |       29771      0.51%      1.88% |     5755670     97.83%     99.71% |       17070      0.29%    100.00%
system.ruby.L1Cache_Controller.NP.Load::total      5883420                      
system.ruby.L1Cache_Controller.NP.Ifetch |       40627     29.75%     29.75% |       32264     23.63%     53.38% |       40582     29.72%     83.10% |       23070     16.90%    100.00%
system.ruby.L1Cache_Controller.NP.Ifetch::total       136543                      
system.ruby.L1Cache_Controller.NP.Store  |       29522      0.86%      0.86% |       13944      0.41%      1.27% |     3376949     98.50%     99.77% |        8039      0.23%    100.00%
system.ruby.L1Cache_Controller.NP.Store::total      3428454                      
system.ruby.L1Cache_Controller.NP.Inv    |        8810     33.65%     33.65% |        5805     22.17%     55.83% |        8236     31.46%     87.29% |        3328     12.71%    100.00%
system.ruby.L1Cache_Controller.NP.Inv::total        26179                      
system.ruby.L1Cache_Controller.I.Load    |        4753     24.22%     24.22% |        6426     32.75%     56.97% |        1969     10.04%     67.01% |        6473     32.99%    100.00%
system.ruby.L1Cache_Controller.I.Load::total        19621                      
system.ruby.L1Cache_Controller.I.Ifetch  |       13490     25.37%     25.37% |       11566     21.75%     47.12% |       15232     28.65%     75.77% |       12882     24.23%    100.00%
system.ruby.L1Cache_Controller.I.Ifetch::total        53170                      
system.ruby.L1Cache_Controller.I.Store   |        3804     27.63%     27.63% |        3548     25.77%     53.40% |        1485     10.79%     64.18% |        4932     35.82%    100.00%
system.ruby.L1Cache_Controller.I.Store::total        13769                      
system.ruby.L1Cache_Controller.I.L1_Replacement |        6460     20.79%     20.79% |        6451     20.76%     41.56% |       11203     36.06%     77.62% |        6954     22.38%    100.00%
system.ruby.L1Cache_Controller.I.L1_Replacement::total        31068                      
system.ruby.L1Cache_Controller.S.Load    |      197849     32.03%     32.03% |      100850     16.32%     48.35% |      216474     35.04%     83.39% |      102620     16.61%    100.00%
system.ruby.L1Cache_Controller.S.Load::total       617793                      
system.ruby.L1Cache_Controller.S.Ifetch  |    15241045      1.94%      1.94% |     4090607      0.52%      2.46% |   764549574     97.17%     99.63% |     2941389      0.37%    100.00%
system.ruby.L1Cache_Controller.S.Ifetch::total    786822615                      
system.ruby.L1Cache_Controller.S.Store   |        3544     37.12%     37.12% |        2207     23.12%     60.24% |        1754     18.37%     78.61% |        2042     21.39%    100.00%
system.ruby.L1Cache_Controller.S.Store::total         9547                      
system.ruby.L1Cache_Controller.S.Inv     |       19775     24.99%     24.99% |       19112     24.15%     49.14% |       19254     24.33%     73.47% |       20990     26.53%    100.00%
system.ruby.L1Cache_Controller.S.Inv::total        79131                      
system.ruby.L1Cache_Controller.S.L1_Replacement |       44484     26.75%     26.75% |       36324     21.84%     48.58% |       59700     35.89%     84.48% |       25818     15.52%    100.00%
system.ruby.L1Cache_Controller.S.L1_Replacement::total       166326                      
system.ruby.L1Cache_Controller.E.Load    |      381370      0.82%      0.82% |      183392      0.39%      1.21% |    46119019     98.57%     99.77% |      105426      0.23%    100.00%
system.ruby.L1Cache_Controller.E.Load::total     46789207                      
system.ruby.L1Cache_Controller.E.Store   |       50301      1.78%      1.78% |        9216      0.33%      2.10% |     2767036     97.78%     99.89% |        3189      0.11%    100.00%
system.ruby.L1Cache_Controller.E.Store::total      2829742                      
system.ruby.L1Cache_Controller.E.Inv     |        2470     20.87%     20.87% |        2842     24.01%     44.88% |        3848     32.51%     77.39% |        2676     22.61%    100.00%
system.ruby.L1Cache_Controller.E.Inv::total        11836                      
system.ruby.L1Cache_Controller.E.L1_Replacement |       22447      0.75%      0.75% |       11664      0.39%      1.14% |     2963156     98.66%     99.79% |        6187      0.21%    100.00%
system.ruby.L1Cache_Controller.E.L1_Replacement::total      3003454                      
system.ruby.L1Cache_Controller.E.Fwd_GETX |         166     18.06%     18.06% |         446     48.53%     66.59% |         185     20.13%     86.72% |         122     13.28%    100.00%
system.ruby.L1Cache_Controller.E.Fwd_GETX::total          919                      
system.ruby.L1Cache_Controller.E.Fwd_GETS |        1226     19.31%     19.31% |        2289     36.05%     55.35% |         787     12.39%     67.75% |        2048     32.25%    100.00%
system.ruby.L1Cache_Controller.E.Fwd_GETS::total         6350                      
system.ruby.L1Cache_Controller.M.Load    |     1873248      3.19%      3.19% |      481360      0.82%      4.01% |    55911949     95.30%     99.32% |      401762      0.68%    100.00%
system.ruby.L1Cache_Controller.M.Load::total     58668319                      
system.ruby.L1Cache_Controller.M.Store   |     1874343      3.38%      3.38% |      606756      1.09%      4.47% |    52550319     94.76%     99.23% |      426515      0.77%    100.00%
system.ruby.L1Cache_Controller.M.Store::total     55457933                      
system.ruby.L1Cache_Controller.M.Inv     |        6172     26.14%     26.14% |        5306     22.48%     48.62% |        6040     25.59%     74.21% |        6089     25.79%    100.00%
system.ruby.L1Cache_Controller.M.Inv::total        23607                      
system.ruby.L1Cache_Controller.M.L1_Replacement |       77667      1.24%      1.24% |       20989      0.34%      1.58% |     6139142     98.28%     99.85% |        9068      0.15%    100.00%
system.ruby.L1Cache_Controller.M.L1_Replacement::total      6246866                      
system.ruby.L1Cache_Controller.M.Fwd_GETX |         546     18.19%     18.19% |         601     20.02%     38.21% |         798     26.58%     64.79% |        1057     35.21%    100.00%
system.ruby.L1Cache_Controller.M.Fwd_GETX::total         3002                      
system.ruby.L1Cache_Controller.M.Fwd_GETS |        3025     37.30%     37.30% |        1741     21.47%     58.77% |        1530     18.87%     77.64% |        1813     22.36%    100.00%
system.ruby.L1Cache_Controller.M.Fwd_GETS::total         8109                      
system.ruby.L1Cache_Controller.IS.Data_Exclusive |       76157      1.30%      1.30% |       26488      0.45%      1.75% |     5735086     98.00%     99.75% |       14624      0.25%    100.00%
system.ruby.L1Cache_Controller.IS.Data_Exclusive::total      5852355                      
system.ruby.L1Cache_Controller.IS.DataS_fromL1 |        3962     27.40%     27.40% |        4409     30.49%     57.89% |        2201     15.22%     73.12% |        3887     26.88%    100.00%
system.ruby.L1Cache_Controller.IS.DataS_fromL1::total        14459                      
system.ruby.L1Cache_Controller.IS.Data_all_Acks |       59660     26.41%     26.41% |       49130     21.74%     48.15% |       76166     33.71%     81.86% |       40984     18.14%    100.00%
system.ruby.L1Cache_Controller.IS.Data_all_Acks::total       225940                      
system.ruby.L1Cache_Controller.IM.Data   |         358     21.99%     21.99% |         375     23.03%     45.02% |         605     37.16%     82.19% |         290     17.81%    100.00%
system.ruby.L1Cache_Controller.IM.Data::total         1628                      
system.ruby.L1Cache_Controller.IM.Data_all_Acks |       32968      0.96%      0.96% |       17117      0.50%      1.46% |     3377829     98.18%     99.63% |       12685      0.37%    100.00%
system.ruby.L1Cache_Controller.IM.Data_all_Acks::total      3440599                      
system.ruby.L1Cache_Controller.SM.Inv    |           0      0.00%      0.00% |           0      0.00%      0.00% |           0      0.00%      0.00% |           4    100.00%    100.00%
system.ruby.L1Cache_Controller.SM.Inv::total            4                      
system.ruby.L1Cache_Controller.SM.Ack    |        7769     44.03%     44.03% |        3414     19.35%     63.38% |        3369     19.09%     82.48% |        3092     17.52%    100.00%
system.ruby.L1Cache_Controller.SM.Ack::total        17644                      
system.ruby.L1Cache_Controller.SM.Ack_all |        3902     34.93%     34.93% |        2582     23.11%     58.04% |        2359     21.12%     79.16% |        2328     20.84%    100.00%
system.ruby.L1Cache_Controller.SM.Ack_all::total        11171                      
system.ruby.L1Cache_Controller.M_I.Ifetch |           0      0.00%      0.00% |           1    100.00%    100.00% |           0      0.00%    100.00% |           0      0.00%    100.00%
system.ruby.L1Cache_Controller.M_I.Ifetch::total            1                      
system.ruby.L1Cache_Controller.M_I.WB_Ack |      100114      1.08%      1.08% |       32653      0.35%      1.44% |     9102298     98.40%     99.84% |       15255      0.16%    100.00%
system.ruby.L1Cache_Controller.M_I.WB_Ack::total      9250320                      
system.ruby.L2Cache_Controller.L1_GET_INSTR       189724      0.00%      0.00%
system.ruby.L2Cache_Controller.L1_GETS        5903370      0.00%      0.00%
system.ruby.L2Cache_Controller.L1_GETX        3442231      0.00%      0.00%
system.ruby.L2Cache_Controller.L1_UPGRADE         9547      0.00%      0.00%
system.ruby.L2Cache_Controller.L1_PUTX        9250320      0.00%      0.00%
system.ruby.L2Cache_Controller.L2_Replacement      1880649      0.00%      0.00%
system.ruby.L2Cache_Controller.L2_Replacement_clean      1147806      0.00%      0.00%
system.ruby.L2Cache_Controller.Mem_Data       3030139      0.00%      0.00%
system.ruby.L2Cache_Controller.Mem_Ack        3028457      0.00%      0.00%
system.ruby.L2Cache_Controller.WB_Data          31716      0.00%      0.00%
system.ruby.L2Cache_Controller.WB_Data_clean         6350      0.00%      0.00%
system.ruby.L2Cache_Controller.Ack              39909      0.00%      0.00%
system.ruby.L2Cache_Controller.Ack_all          57969      0.00%      0.00%
system.ruby.L2Cache_Controller.Unblock          14459      0.00%      0.00%
system.ruby.L2Cache_Controller.Exclusive_Unblock      9304125      0.00%      0.00%
system.ruby.L2Cache_Controller.MEM_Inv              4      0.00%      0.00%
system.ruby.L2Cache_Controller.NP.L1_GET_INSTR        44115      0.00%      0.00%
system.ruby.L2Cache_Controller.NP.L1_GETS      1691178      0.00%      0.00%
system.ruby.L2Cache_Controller.NP.L1_GETX      1294846      0.00%      0.00%
system.ruby.L2Cache_Controller.SS.L1_GET_INSTR       145585      0.00%      0.00%
system.ruby.L2Cache_Controller.SS.L1_GETS        36215      0.00%      0.00%
system.ruby.L2Cache_Controller.SS.L1_GETX         1628      0.00%      0.00%
system.ruby.L2Cache_Controller.SS.L1_UPGRADE         9543      0.00%      0.00%
system.ruby.L2Cache_Controller.SS.L2_Replacement          708      0.00%      0.00%
system.ruby.L2Cache_Controller.SS.L2_Replacement_clean        45425      0.00%      0.00%
system.ruby.L2Cache_Controller.M.L1_GET_INSTR           11      0.00%      0.00%
system.ruby.L2Cache_Controller.M.L1_GETS      4161183      0.00%      0.00%
system.ruby.L2Cache_Controller.M.L1_GETX      2141832      0.00%      0.00%
system.ruby.L2Cache_Controller.M.L2_Replacement      1876908      0.00%      0.00%
system.ruby.L2Cache_Controller.M.L2_Replacement_clean      1069973      0.00%      0.00%
system.ruby.L2Cache_Controller.MT.L1_GETS        14459      0.00%      0.00%
system.ruby.L2Cache_Controller.MT.L1_GETX         3921      0.00%      0.00%
system.ruby.L2Cache_Controller.MT.L1_PUTX      9250320      0.00%      0.00%
system.ruby.L2Cache_Controller.MT.L2_Replacement         3033      0.00%      0.00%
system.ruby.L2Cache_Controller.MT.L2_Replacement_clean        32408      0.00%      0.00%
system.ruby.L2Cache_Controller.MT.MEM_Inv            2      0.00%      0.00%
system.ruby.L2Cache_Controller.M_I.L1_GET_INSTR           11      0.00%      0.00%
system.ruby.L2Cache_Controller.M_I.L1_GETS            3      0.00%      0.00%
system.ruby.L2Cache_Controller.M_I.L1_GETX            2      0.00%      0.00%
system.ruby.L2Cache_Controller.M_I.Mem_Ack      3028457      0.00%      0.00%
system.ruby.L2Cache_Controller.MT_I.WB_Data         2539      0.00%      0.00%
system.ruby.L2Cache_Controller.MT_I.Ack_all          496      0.00%      0.00%
system.ruby.L2Cache_Controller.MT_I.MEM_Inv            2      0.00%      0.00%
system.ruby.L2Cache_Controller.MCT_I.WB_Data        21068      0.00%      0.00%
system.ruby.L2Cache_Controller.MCT_I.Ack_all        11340      0.00%      0.00%
system.ruby.L2Cache_Controller.I_I.Ack          39118      0.00%      0.00%
system.ruby.L2Cache_Controller.I_I.Ack_all        45425      0.00%      0.00%
system.ruby.L2Cache_Controller.S_I.Ack            791      0.00%      0.00%
system.ruby.L2Cache_Controller.S_I.Ack_all          708      0.00%      0.00%
system.ruby.L2Cache_Controller.ISS.L1_GETS            6      0.00%      0.00%
system.ruby.L2Cache_Controller.ISS.Mem_Data      1691172      0.00%      0.00%
system.ruby.L2Cache_Controller.IS.L1_GET_INSTR            2      0.00%      0.00%
system.ruby.L2Cache_Controller.IS.Mem_Data        44121      0.00%      0.00%
system.ruby.L2Cache_Controller.IM.Mem_Data      1294846      0.00%      0.00%
system.ruby.L2Cache_Controller.SS_MB.L1_GETS           81      0.00%      0.00%
system.ruby.L2Cache_Controller.SS_MB.L1_UPGRADE            4      0.00%      0.00%
system.ruby.L2Cache_Controller.SS_MB.Exclusive_Unblock        11171      0.00%      0.00%
system.ruby.L2Cache_Controller.MT_MB.L1_GETS          243      0.00%      0.00%
system.ruby.L2Cache_Controller.MT_MB.L1_GETX            1      0.00%      0.00%
system.ruby.L2Cache_Controller.MT_MB.Exclusive_Unblock      9292954      0.00%      0.00%
system.ruby.L2Cache_Controller.MT_IIB.L1_GETS            2      0.00%      0.00%
system.ruby.L2Cache_Controller.MT_IIB.L1_GETX            1      0.00%      0.00%
system.ruby.L2Cache_Controller.MT_IIB.WB_Data         8094      0.00%      0.00%
system.ruby.L2Cache_Controller.MT_IIB.WB_Data_clean         6335      0.00%      0.00%
system.ruby.L2Cache_Controller.MT_IIB.Unblock           30      0.00%      0.00%
system.ruby.L2Cache_Controller.MT_IB.WB_Data           15      0.00%      0.00%
system.ruby.L2Cache_Controller.MT_IB.WB_Data_clean           15      0.00%      0.00%
system.ruby.L2Cache_Controller.MT_SB.Unblock        14429      0.00%      0.00%

---------- End Simulation Statistics   ----------
