Redirecting stdout to /root/anthony/lelec2990-sim/splash2x.fft/X86_MESI_Two_Level/l2_assoc/12way/stdout.txt
Redirecting stderr to /root/anthony/lelec2990-sim/splash2x.fft/X86_MESI_Two_Level/l2_assoc/12way/stderr.txt
gem5 Simulator System.  http://gem5.org
gem5 is copyrighted software; use the --copyright option for details.

gem5 compiled Jun  1 2016 11:40:54
gem5 started Jun  2 2016 22:37:20
gem5 executing on virunga.info.ucl.ac.be, pid 488950
command line: /root/anthony/gem5/build/X86_MESI_Two_Level/gem5.opt --outdir=/root/anthony/lelec2990-sim/splash2x.fft/X86_MESI_Two_Level/l2_assoc/12way -e --stderr-file=/root/anthony/lelec2990-sim/splash2x.fft/X86_MESI_Two_Level/l2_assoc/12way/stderr.txt -r --stdout-file=/root/anthony/lelec2990-sim/splash2x.fft/X86_MESI_Two_Level/l2_assoc/12way/stdout.txt /root/anthony/gem5/configs/example/fs.py --mem-size 1GB --script /root/anthony/gem5/sim_script --num-cpus 4 --ruby -r 1 --restore-with-cpu timing --l2_assoc 12

Global frequency set at 1000000000000 ticks per second
info: kernel located at: /root/anthony/debian/binaries/vmlinux
      0: rtc: Real-time clock set to Sun Jan  1 00:00:00 2012
**** REAL SIMULATION ****
info: Entering event queue @ 52550013153000.  Starting simulation...
Exiting @ tick 53808033173501 because m5_exit instruction encountered
