
---------- Begin Simulation Statistics ----------
sim_seconds                                  1.883556                       # Number of seconds simulated
sim_ticks                                1883555570500                       # Number of ticks simulated
final_tick                               54223888134001                       # Number of ticks from beginning of simulation (restored from checkpoints and never reset)
sim_freq                                 1000000000000                       # Frequency of simulated ticks
host_inst_rate                                  99424                       # Simulator instruction rate (inst/s)
host_op_rate                                   148178                       # Simulator op (including micro ops) rate (op/s)
host_tick_rate                              258215386                       # Simulator tick rate (ticks/s)
host_mem_usage                                1805120                       # Number of bytes of host memory used
host_seconds                                  7294.51                       # Real time elapsed on the host
sim_insts                                   725247362                       # Number of instructions simulated
sim_ops                                    1080885121                       # Number of ops (including micro ops) simulated
system.voltage_domain.voltage                       1                       # Voltage in Volts
system.clk_domain.clock                          1000                       # Clock period in ticks
system.mem_ctrls.bytes_read::ruby.dir_cntrl0    432025536                       # Number of bytes read from this memory
system.mem_ctrls.bytes_read::total          432025536                       # Number of bytes read from this memory
system.mem_ctrls.bytes_written::ruby.dir_cntrl0    223261888                       # Number of bytes written to this memory
system.mem_ctrls.bytes_written::total       223261888                       # Number of bytes written to this memory
system.mem_ctrls.num_reads::ruby.dir_cntrl0      6750399                       # Number of read requests responded to by this memory
system.mem_ctrls.num_reads::total             6750399                       # Number of read requests responded to by this memory
system.mem_ctrls.num_writes::ruby.dir_cntrl0      3488467                       # Number of write requests responded to by this memory
system.mem_ctrls.num_writes::total            3488467                       # Number of write requests responded to by this memory
system.mem_ctrls.bw_read::ruby.dir_cntrl0    229367024                       # Total read bandwidth from this memory (bytes/s)
system.mem_ctrls.bw_read::total             229367024                       # Total read bandwidth from this memory (bytes/s)
system.mem_ctrls.bw_write::ruby.dir_cntrl0    118532148                       # Write bandwidth from this memory (bytes/s)
system.mem_ctrls.bw_write::total            118532148                       # Write bandwidth from this memory (bytes/s)
system.mem_ctrls.bw_total::ruby.dir_cntrl0    347899172                       # Total bandwidth to/from this memory (bytes/s)
system.mem_ctrls.bw_total::total            347899172                       # Total bandwidth to/from this memory (bytes/s)
system.mem_ctrls.readReqs                     6750399                       # Number of read requests accepted
system.mem_ctrls.writeReqs                    3488467                       # Number of write requests accepted
system.mem_ctrls.readBursts                   6750399                       # Number of DRAM read bursts, including those serviced by the write queue
system.mem_ctrls.writeBursts                  3488467                       # Number of DRAM write bursts, including those merged in the write queue
system.mem_ctrls.bytesReadDRAM              430250880                       # Total number of bytes read from DRAM
system.mem_ctrls.bytesReadWrQ                 1774656                       # Total number of bytes read from write queue
system.mem_ctrls.bytesWritten               223252096                       # Total number of bytes written to DRAM
system.mem_ctrls.bytesReadSys               432025536                       # Total read bytes from the system interface side
system.mem_ctrls.bytesWrittenSys            223261888                       # Total written bytes from the system interface side
system.mem_ctrls.servicedByWrQ                  27729                       # Number of DRAM read bursts serviced by the write queue
system.mem_ctrls.mergedWrBursts                   149                       # Number of DRAM write bursts merged with an existing one
system.mem_ctrls.neitherReadNorWriteReqs            0                       # Number of requests that are neither read nor write
system.mem_ctrls.perBankRdBursts::0            419032                       # Per bank write bursts
system.mem_ctrls.perBankRdBursts::1            416439                       # Per bank write bursts
system.mem_ctrls.perBankRdBursts::2            413708                       # Per bank write bursts
system.mem_ctrls.perBankRdBursts::3            408279                       # Per bank write bursts
system.mem_ctrls.perBankRdBursts::4            427308                       # Per bank write bursts
system.mem_ctrls.perBankRdBursts::5            422899                       # Per bank write bursts
system.mem_ctrls.perBankRdBursts::6            459295                       # Per bank write bursts
system.mem_ctrls.perBankRdBursts::7            438839                       # Per bank write bursts
system.mem_ctrls.perBankRdBursts::8            441963                       # Per bank write bursts
system.mem_ctrls.perBankRdBursts::9            425105                       # Per bank write bursts
system.mem_ctrls.perBankRdBursts::10           396506                       # Per bank write bursts
system.mem_ctrls.perBankRdBursts::11           402662                       # Per bank write bursts
system.mem_ctrls.perBankRdBursts::12           414100                       # Per bank write bursts
system.mem_ctrls.perBankRdBursts::13           398594                       # Per bank write bursts
system.mem_ctrls.perBankRdBursts::14           400272                       # Per bank write bursts
system.mem_ctrls.perBankRdBursts::15           437669                       # Per bank write bursts
system.mem_ctrls.perBankWrBursts::0            209954                       # Per bank write bursts
system.mem_ctrls.perBankWrBursts::1            215328                       # Per bank write bursts
system.mem_ctrls.perBankWrBursts::2            214219                       # Per bank write bursts
system.mem_ctrls.perBankWrBursts::3            206216                       # Per bank write bursts
system.mem_ctrls.perBankWrBursts::4            218984                       # Per bank write bursts
system.mem_ctrls.perBankWrBursts::5            221924                       # Per bank write bursts
system.mem_ctrls.perBankWrBursts::6            250208                       # Per bank write bursts
system.mem_ctrls.perBankWrBursts::7            239495                       # Per bank write bursts
system.mem_ctrls.perBankWrBursts::8            242493                       # Per bank write bursts
system.mem_ctrls.perBankWrBursts::9            226415                       # Per bank write bursts
system.mem_ctrls.perBankWrBursts::10           198736                       # Per bank write bursts
system.mem_ctrls.perBankWrBursts::11           202621                       # Per bank write bursts
system.mem_ctrls.perBankWrBursts::12           215490                       # Per bank write bursts
system.mem_ctrls.perBankWrBursts::13           197700                       # Per bank write bursts
system.mem_ctrls.perBankWrBursts::14           198059                       # Per bank write bursts
system.mem_ctrls.perBankWrBursts::15           230472                       # Per bank write bursts
system.mem_ctrls.numRdRetry                         0                       # Number of times read queue was full causing retry
system.mem_ctrls.numWrRetry                         0                       # Number of times write queue was full causing retry
system.mem_ctrls.totGap                  1883555497500                       # Total gap between requests
system.mem_ctrls.readPktSize::0                     0                       # Read request sizes (log2)
system.mem_ctrls.readPktSize::1                     0                       # Read request sizes (log2)
system.mem_ctrls.readPktSize::2                     0                       # Read request sizes (log2)
system.mem_ctrls.readPktSize::3                     0                       # Read request sizes (log2)
system.mem_ctrls.readPktSize::4                     0                       # Read request sizes (log2)
system.mem_ctrls.readPktSize::5                     0                       # Read request sizes (log2)
system.mem_ctrls.readPktSize::6               6750399                       # Read request sizes (log2)
system.mem_ctrls.writePktSize::0                    0                       # Write request sizes (log2)
system.mem_ctrls.writePktSize::1                    0                       # Write request sizes (log2)
system.mem_ctrls.writePktSize::2                    0                       # Write request sizes (log2)
system.mem_ctrls.writePktSize::3                    0                       # Write request sizes (log2)
system.mem_ctrls.writePktSize::4                    0                       # Write request sizes (log2)
system.mem_ctrls.writePktSize::5                    0                       # Write request sizes (log2)
system.mem_ctrls.writePktSize::6              3488467                       # Write request sizes (log2)
system.mem_ctrls.rdQLenPdf::0                 6689152                       # What read queue length does an incoming req see
system.mem_ctrls.rdQLenPdf::1                   33516                       # What read queue length does an incoming req see
system.mem_ctrls.rdQLenPdf::2                       2                       # What read queue length does an incoming req see
system.mem_ctrls.rdQLenPdf::3                       0                       # What read queue length does an incoming req see
system.mem_ctrls.rdQLenPdf::4                       0                       # What read queue length does an incoming req see
system.mem_ctrls.rdQLenPdf::5                       0                       # What read queue length does an incoming req see
system.mem_ctrls.rdQLenPdf::6                       0                       # What read queue length does an incoming req see
system.mem_ctrls.rdQLenPdf::7                       0                       # What read queue length does an incoming req see
system.mem_ctrls.rdQLenPdf::8                       0                       # What read queue length does an incoming req see
system.mem_ctrls.rdQLenPdf::9                       0                       # What read queue length does an incoming req see
system.mem_ctrls.rdQLenPdf::10                      0                       # What read queue length does an incoming req see
system.mem_ctrls.rdQLenPdf::11                      0                       # What read queue length does an incoming req see
system.mem_ctrls.rdQLenPdf::12                      0                       # What read queue length does an incoming req see
system.mem_ctrls.rdQLenPdf::13                      0                       # What read queue length does an incoming req see
system.mem_ctrls.rdQLenPdf::14                      0                       # What read queue length does an incoming req see
system.mem_ctrls.rdQLenPdf::15                      0                       # What read queue length does an incoming req see
system.mem_ctrls.rdQLenPdf::16                      0                       # What read queue length does an incoming req see
system.mem_ctrls.rdQLenPdf::17                      0                       # What read queue length does an incoming req see
system.mem_ctrls.rdQLenPdf::18                      0                       # What read queue length does an incoming req see
system.mem_ctrls.rdQLenPdf::19                      0                       # What read queue length does an incoming req see
system.mem_ctrls.rdQLenPdf::20                      0                       # What read queue length does an incoming req see
system.mem_ctrls.rdQLenPdf::21                      0                       # What read queue length does an incoming req see
system.mem_ctrls.rdQLenPdf::22                      0                       # What read queue length does an incoming req see
system.mem_ctrls.rdQLenPdf::23                      0                       # What read queue length does an incoming req see
system.mem_ctrls.rdQLenPdf::24                      0                       # What read queue length does an incoming req see
system.mem_ctrls.rdQLenPdf::25                      0                       # What read queue length does an incoming req see
system.mem_ctrls.rdQLenPdf::26                      0                       # What read queue length does an incoming req see
system.mem_ctrls.rdQLenPdf::27                      0                       # What read queue length does an incoming req see
system.mem_ctrls.rdQLenPdf::28                      0                       # What read queue length does an incoming req see
system.mem_ctrls.rdQLenPdf::29                      0                       # What read queue length does an incoming req see
system.mem_ctrls.rdQLenPdf::30                      0                       # What read queue length does an incoming req see
system.mem_ctrls.rdQLenPdf::31                      0                       # What read queue length does an incoming req see
system.mem_ctrls.wrQLenPdf::0                       0                       # What write queue length does an incoming req see
system.mem_ctrls.wrQLenPdf::1                       0                       # What write queue length does an incoming req see
system.mem_ctrls.wrQLenPdf::2                       0                       # What write queue length does an incoming req see
system.mem_ctrls.wrQLenPdf::3                       0                       # What write queue length does an incoming req see
system.mem_ctrls.wrQLenPdf::4                       0                       # What write queue length does an incoming req see
system.mem_ctrls.wrQLenPdf::5                       0                       # What write queue length does an incoming req see
system.mem_ctrls.wrQLenPdf::6                       0                       # What write queue length does an incoming req see
system.mem_ctrls.wrQLenPdf::7                       0                       # What write queue length does an incoming req see
system.mem_ctrls.wrQLenPdf::8                       0                       # What write queue length does an incoming req see
system.mem_ctrls.wrQLenPdf::9                       0                       # What write queue length does an incoming req see
system.mem_ctrls.wrQLenPdf::10                      0                       # What write queue length does an incoming req see
system.mem_ctrls.wrQLenPdf::11                      0                       # What write queue length does an incoming req see
system.mem_ctrls.wrQLenPdf::12                      0                       # What write queue length does an incoming req see
system.mem_ctrls.wrQLenPdf::13                      0                       # What write queue length does an incoming req see
system.mem_ctrls.wrQLenPdf::14                      0                       # What write queue length does an incoming req see
system.mem_ctrls.wrQLenPdf::15                   3229                       # What write queue length does an incoming req see
system.mem_ctrls.wrQLenPdf::16                   3968                       # What write queue length does an incoming req see
system.mem_ctrls.wrQLenPdf::17                 213231                       # What write queue length does an incoming req see
system.mem_ctrls.wrQLenPdf::18                 217909                       # What write queue length does an incoming req see
system.mem_ctrls.wrQLenPdf::19                 218071                       # What write queue length does an incoming req see
system.mem_ctrls.wrQLenPdf::20                 218056                       # What write queue length does an incoming req see
system.mem_ctrls.wrQLenPdf::21                 218198                       # What write queue length does an incoming req see
system.mem_ctrls.wrQLenPdf::22                 217999                       # What write queue length does an incoming req see
system.mem_ctrls.wrQLenPdf::23                 217938                       # What write queue length does an incoming req see
system.mem_ctrls.wrQLenPdf::24                 217860                       # What write queue length does an incoming req see
system.mem_ctrls.wrQLenPdf::25                 217832                       # What write queue length does an incoming req see
system.mem_ctrls.wrQLenPdf::26                 217750                       # What write queue length does an incoming req see
system.mem_ctrls.wrQLenPdf::27                 217781                       # What write queue length does an incoming req see
system.mem_ctrls.wrQLenPdf::28                 217750                       # What write queue length does an incoming req see
system.mem_ctrls.wrQLenPdf::29                 217734                       # What write queue length does an incoming req see
system.mem_ctrls.wrQLenPdf::30                 217683                       # What write queue length does an incoming req see
system.mem_ctrls.wrQLenPdf::31                 217687                       # What write queue length does an incoming req see
system.mem_ctrls.wrQLenPdf::32                 217604                       # What write queue length does an incoming req see
system.mem_ctrls.wrQLenPdf::33                     37                       # What write queue length does an incoming req see
system.mem_ctrls.wrQLenPdf::34                      1                       # What write queue length does an incoming req see
system.mem_ctrls.wrQLenPdf::35                      0                       # What write queue length does an incoming req see
system.mem_ctrls.wrQLenPdf::36                      0                       # What write queue length does an incoming req see
system.mem_ctrls.wrQLenPdf::37                      0                       # What write queue length does an incoming req see
system.mem_ctrls.wrQLenPdf::38                      0                       # What write queue length does an incoming req see
system.mem_ctrls.wrQLenPdf::39                      0                       # What write queue length does an incoming req see
system.mem_ctrls.wrQLenPdf::40                      0                       # What write queue length does an incoming req see
system.mem_ctrls.wrQLenPdf::41                      0                       # What write queue length does an incoming req see
system.mem_ctrls.wrQLenPdf::42                      0                       # What write queue length does an incoming req see
system.mem_ctrls.wrQLenPdf::43                      0                       # What write queue length does an incoming req see
system.mem_ctrls.wrQLenPdf::44                      0                       # What write queue length does an incoming req see
system.mem_ctrls.wrQLenPdf::45                      0                       # What write queue length does an incoming req see
system.mem_ctrls.wrQLenPdf::46                      0                       # What write queue length does an incoming req see
system.mem_ctrls.wrQLenPdf::47                      0                       # What write queue length does an incoming req see
system.mem_ctrls.wrQLenPdf::48                      0                       # What write queue length does an incoming req see
system.mem_ctrls.wrQLenPdf::49                      0                       # What write queue length does an incoming req see
system.mem_ctrls.wrQLenPdf::50                      0                       # What write queue length does an incoming req see
system.mem_ctrls.wrQLenPdf::51                      0                       # What write queue length does an incoming req see
system.mem_ctrls.wrQLenPdf::52                      0                       # What write queue length does an incoming req see
system.mem_ctrls.wrQLenPdf::53                      0                       # What write queue length does an incoming req see
system.mem_ctrls.wrQLenPdf::54                      0                       # What write queue length does an incoming req see
system.mem_ctrls.wrQLenPdf::55                      0                       # What write queue length does an incoming req see
system.mem_ctrls.wrQLenPdf::56                      0                       # What write queue length does an incoming req see
system.mem_ctrls.wrQLenPdf::57                      0                       # What write queue length does an incoming req see
system.mem_ctrls.wrQLenPdf::58                      0                       # What write queue length does an incoming req see
system.mem_ctrls.wrQLenPdf::59                      0                       # What write queue length does an incoming req see
system.mem_ctrls.wrQLenPdf::60                      0                       # What write queue length does an incoming req see
system.mem_ctrls.wrQLenPdf::61                      0                       # What write queue length does an incoming req see
system.mem_ctrls.wrQLenPdf::62                      0                       # What write queue length does an incoming req see
system.mem_ctrls.wrQLenPdf::63                      0                       # What write queue length does an incoming req see
system.mem_ctrls.bytesPerActivate::samples      5335466                       # Bytes accessed per row activation
system.mem_ctrls.bytesPerActivate::mean    122.482830                       # Bytes accessed per row activation
system.mem_ctrls.bytesPerActivate::gmean    82.983530                       # Bytes accessed per row activation
system.mem_ctrls.bytesPerActivate::stdev   186.900031                       # Bytes accessed per row activation
system.mem_ctrls.bytesPerActivate::0-127      4452896     83.46%     83.46% # Bytes accessed per row activation
system.mem_ctrls.bytesPerActivate::128-255       383297      7.18%     90.64% # Bytes accessed per row activation
system.mem_ctrls.bytesPerActivate::256-383       127444      2.39%     93.03% # Bytes accessed per row activation
system.mem_ctrls.bytesPerActivate::384-511        85335      1.60%     94.63% # Bytes accessed per row activation
system.mem_ctrls.bytesPerActivate::512-639        64008      1.20%     95.83% # Bytes accessed per row activation
system.mem_ctrls.bytesPerActivate::640-767        36839      0.69%     96.52% # Bytes accessed per row activation
system.mem_ctrls.bytesPerActivate::768-895        27147      0.51%     97.03% # Bytes accessed per row activation
system.mem_ctrls.bytesPerActivate::896-1023        23407      0.44%     97.47% # Bytes accessed per row activation
system.mem_ctrls.bytesPerActivate::1024-1151       135093      2.53%    100.00% # Bytes accessed per row activation
system.mem_ctrls.bytesPerActivate::total      5335466                       # Bytes accessed per row activation
system.mem_ctrls.rdPerTurnAround::samples       217548                       # Reads before turning the bus around for writes
system.mem_ctrls.rdPerTurnAround::mean      30.902095                       # Reads before turning the bus around for writes
system.mem_ctrls.rdPerTurnAround::gmean     23.349953                       # Reads before turning the bus around for writes
system.mem_ctrls.rdPerTurnAround::stdev    149.108155                       # Reads before turning the bus around for writes
system.mem_ctrls.rdPerTurnAround::0-511        216962     99.73%     99.73% # Reads before turning the bus around for writes
system.mem_ctrls.rdPerTurnAround::512-1023           94      0.04%     99.77% # Reads before turning the bus around for writes
system.mem_ctrls.rdPerTurnAround::1024-1535           90      0.04%     99.82% # Reads before turning the bus around for writes
system.mem_ctrls.rdPerTurnAround::1536-2047           96      0.04%     99.86% # Reads before turning the bus around for writes
system.mem_ctrls.rdPerTurnAround::2048-2559           85      0.04%     99.90% # Reads before turning the bus around for writes
system.mem_ctrls.rdPerTurnAround::2560-3071           57      0.03%     99.92% # Reads before turning the bus around for writes
system.mem_ctrls.rdPerTurnAround::3072-3583           41      0.02%     99.94% # Reads before turning the bus around for writes
system.mem_ctrls.rdPerTurnAround::3584-4095           59      0.03%     99.97% # Reads before turning the bus around for writes
system.mem_ctrls.rdPerTurnAround::4096-4607           20      0.01%     99.98% # Reads before turning the bus around for writes
system.mem_ctrls.rdPerTurnAround::4608-5119           18      0.01%     99.99% # Reads before turning the bus around for writes
system.mem_ctrls.rdPerTurnAround::5120-5631            7      0.00%     99.99% # Reads before turning the bus around for writes
system.mem_ctrls.rdPerTurnAround::5632-6143            1      0.00%     99.99% # Reads before turning the bus around for writes
system.mem_ctrls.rdPerTurnAround::6144-6655            2      0.00%     99.99% # Reads before turning the bus around for writes
system.mem_ctrls.rdPerTurnAround::6656-7167            1      0.00%     99.99% # Reads before turning the bus around for writes
system.mem_ctrls.rdPerTurnAround::7168-7679            4      0.00%     99.99% # Reads before turning the bus around for writes
system.mem_ctrls.rdPerTurnAround::7680-8191            4      0.00%    100.00% # Reads before turning the bus around for writes
system.mem_ctrls.rdPerTurnAround::8192-8703            6      0.00%    100.00% # Reads before turning the bus around for writes
system.mem_ctrls.rdPerTurnAround::11264-11775            1      0.00%    100.00% # Reads before turning the bus around for writes
system.mem_ctrls.rdPerTurnAround::total        217548                       # Reads before turning the bus around for writes
system.mem_ctrls.wrPerTurnAround::samples       217548                       # Writes before turning the bus around for reads
system.mem_ctrls.wrPerTurnAround::mean      16.034687                       # Writes before turning the bus around for reads
system.mem_ctrls.wrPerTurnAround::gmean     16.032755                       # Writes before turning the bus around for reads
system.mem_ctrls.wrPerTurnAround::stdev      0.258600                       # Writes before turning the bus around for reads
system.mem_ctrls.wrPerTurnAround::16           213574     98.17%     98.17% # Writes before turning the bus around for reads
system.mem_ctrls.wrPerTurnAround::17              460      0.21%     98.38% # Writes before turning the bus around for reads
system.mem_ctrls.wrPerTurnAround::18             3458      1.59%     99.97% # Writes before turning the bus around for reads
system.mem_ctrls.wrPerTurnAround::19               54      0.02%    100.00% # Writes before turning the bus around for reads
system.mem_ctrls.wrPerTurnAround::20                2      0.00%    100.00% # Writes before turning the bus around for reads
system.mem_ctrls.wrPerTurnAround::total        217548                       # Writes before turning the bus around for reads
system.mem_ctrls.totQLat                 134200678317                       # Total ticks spent queuing
system.mem_ctrls.totMemAccLat            260250740817                       # Total ticks spent from burst creation until serviced by the DRAM
system.mem_ctrls.totBusLat                33613350000                       # Total ticks spent in databus transfers
system.mem_ctrls.avgQLat                     19962.41                       # Average queueing delay per DRAM burst
system.mem_ctrls.avgBusLat                    5000.00                       # Average bus latency per DRAM burst
system.mem_ctrls.avgMemAccLat                38712.41                       # Average memory access latency per DRAM burst
system.mem_ctrls.avgRdBW                       228.42                       # Average DRAM read bandwidth in MiByte/s
system.mem_ctrls.avgWrBW                       118.53                       # Average achieved write bandwidth in MiByte/s
system.mem_ctrls.avgRdBWSys                    229.37                       # Average system read bandwidth in MiByte/s
system.mem_ctrls.avgWrBWSys                    118.53                       # Average system write bandwidth in MiByte/s
system.mem_ctrls.peakBW                      12800.00                       # Theoretical peak bandwidth in MiByte/s
system.mem_ctrls.busUtil                         2.71                       # Data bus utilization in percentage
system.mem_ctrls.busUtilRead                     1.78                       # Data bus utilization in percentage for reads
system.mem_ctrls.busUtilWrite                    0.93                       # Data bus utilization in percentage for writes
system.mem_ctrls.avgRdQLen                       1.00                       # Average read queue length when enqueuing
system.mem_ctrls.avgWrQLen                      25.57                       # Average write queue length when enqueuing
system.mem_ctrls.readRowHits                  3713906                       # Number of row buffer hits during reads
system.mem_ctrls.writeRowHits                 1161609                       # Number of row buffer hits during writes
system.mem_ctrls.readRowHitRate                 55.24                       # Row buffer hit rate for reads
system.mem_ctrls.writeRowHitRate                33.30                       # Row buffer hit rate for writes
system.mem_ctrls.avgGap                     183961.34                       # Average gap between requests
system.mem_ctrls.pageHitRate                    47.75                       # Row buffer hit rate, read and write combined
system.mem_ctrls_0.actEnergy              20671875000                       # Energy for activate commands per rank (pJ)
system.mem_ctrls_0.preEnergy              11279296875                       # Energy for precharge commands per rank (pJ)
system.mem_ctrls_0.readEnergy             26633981400                       # Energy for read commands per rank (pJ)
system.mem_ctrls_0.writeEnergy            11513171520                       # Energy for write commands per rank (pJ)
system.mem_ctrls_0.refreshEnergy         123246973200                       # Energy for refresh commands per rank (pJ)
system.mem_ctrls_0.actBackEnergy         669102468030                       # Energy for active background per rank (pJ)
system.mem_ctrls_0.preBackEnergy         545243420250                       # Energy for precharge background per rank (pJ)
system.mem_ctrls_0.totalEnergy           1407691186275                       # Total energy per rank (pJ)
system.mem_ctrls_0.averagePower            746.010472                       # Core power per rank (mW)
system.mem_ctrls_0.memoryStateTime::IDLE 901048264752                       # Time in different power states
system.mem_ctrls_0.memoryStateTime::REF   62896080000                       # Time in different power states
system.mem_ctrls_0.memoryStateTime::PRE_PDN            0                       # Time in different power states
system.mem_ctrls_0.memoryStateTime::ACT  919609652248                       # Time in different power states
system.mem_ctrls_0.memoryStateTime::ACT_PDN            0                       # Time in different power states
system.mem_ctrls_1.actEnergy              19696461120                       # Energy for activate commands per rank (pJ)
system.mem_ctrls_1.preEnergy              10747077000                       # Energy for precharge commands per rank (pJ)
system.mem_ctrls_1.readEnergy             25926045600                       # Energy for read commands per rank (pJ)
system.mem_ctrls_1.writeEnergy            11094563520                       # Energy for write commands per rank (pJ)
system.mem_ctrls_1.refreshEnergy         123246973200                       # Energy for refresh commands per rank (pJ)
system.mem_ctrls_1.actBackEnergy         663773152995                       # Energy for active background per rank (pJ)
system.mem_ctrls_1.preBackEnergy         549918258000                       # Energy for precharge background per rank (pJ)
system.mem_ctrls_1.totalEnergy           1404402531435                       # Total energy per rank (pJ)
system.mem_ctrls_1.averagePower            744.267639                       # Core power per rank (mW)
system.mem_ctrls_1.memoryStateTime::IDLE 908672601252                       # Time in different power states
system.mem_ctrls_1.memoryStateTime::REF   62896080000                       # Time in different power states
system.mem_ctrls_1.memoryStateTime::PRE_PDN            0                       # Time in different power states
system.mem_ctrls_1.memoryStateTime::ACT  911991654248                       # Time in different power states
system.mem_ctrls_1.memoryStateTime::ACT_PDN            0                       # Time in different power states
system.cpu_voltage_domain.voltage                   1                       # Voltage in Volts
system.cpu_clk_domain.clock                       500                       # Clock period in ticks
system.cpu0.apic_clk_domain.clock                8000                       # Clock period in ticks
system.cpu0.numCycles                      3770345538                       # number of cpu cycles simulated
system.cpu0.numWorkItemsStarted                     0                       # number of work items this cpu started
system.cpu0.numWorkItemsCompleted                   0                       # number of work items this cpu completed
system.cpu0.kern.inst.arm                           0                       # number of arm instructions executed
system.cpu0.kern.inst.quiesce                       0                       # number of quiesce instructions executed
system.cpu0.committedInsts                    1546738                       # Number of instructions committed
system.cpu0.committedOps                      3363334                       # Number of ops (including micro ops) committed
system.cpu0.num_int_alu_accesses              3290796                       # Number of integer alu accesses
system.cpu0.num_fp_alu_accesses                    39                       # Number of float alu accesses
system.cpu0.num_func_calls                      98960                       # number of times a function call or return occured
system.cpu0.num_conditional_control_insts       222304                       # number of instructions that are conditional controls
system.cpu0.num_int_insts                     3290796                       # number of integer instructions
system.cpu0.num_fp_insts                           39                       # number of float instructions
system.cpu0.num_int_register_reads            6693896                       # number of times the integer registers were read
system.cpu0.num_int_register_writes           2724947                       # number of times the integer registers were written
system.cpu0.num_fp_register_reads                  63                       # number of times the floating registers were read
system.cpu0.num_fp_register_writes                 31                       # number of times the floating registers were written
system.cpu0.num_cc_register_reads             1853279                       # number of times the CC registers were read
system.cpu0.num_cc_register_writes            1005977                       # number of times the CC registers were written
system.cpu0.num_mem_refs                       795554                       # number of memory refs
system.cpu0.num_load_insts                     490255                       # Number of load instructions
system.cpu0.num_store_insts                    305299                       # Number of store instructions
system.cpu0.num_idle_cycles              3758264817.534473                       # Number of idle cycles
system.cpu0.num_busy_cycles              12080720.465527                       # Number of busy cycles
system.cpu0.not_idle_fraction                0.003204                       # Percentage of non-idle cycles
system.cpu0.idle_fraction                    0.996796                       # Percentage of idle cycles
system.cpu0.Branches                           351562                       # Number of branches fetched
system.cpu0.op_class::No_OpClass                58183      1.73%      1.73% # Class of executed instruction
system.cpu0.op_class::IntAlu                  2483981     73.85%     75.58% # Class of executed instruction
system.cpu0.op_class::IntMult                    6233      0.19%     75.77% # Class of executed instruction
system.cpu0.op_class::IntDiv                    19375      0.58%     76.35% # Class of executed instruction
system.cpu0.op_class::FloatAdd                     30      0.00%     76.35% # Class of executed instruction
system.cpu0.op_class::FloatCmp                      0      0.00%     76.35% # Class of executed instruction
system.cpu0.op_class::FloatCvt                      0      0.00%     76.35% # Class of executed instruction
system.cpu0.op_class::FloatMult                     0      0.00%     76.35% # Class of executed instruction
system.cpu0.op_class::FloatDiv                      0      0.00%     76.35% # Class of executed instruction
system.cpu0.op_class::FloatSqrt                     0      0.00%     76.35% # Class of executed instruction
system.cpu0.op_class::SimdAdd                       0      0.00%     76.35% # Class of executed instruction
system.cpu0.op_class::SimdAddAcc                    0      0.00%     76.35% # Class of executed instruction
system.cpu0.op_class::SimdAlu                       0      0.00%     76.35% # Class of executed instruction
system.cpu0.op_class::SimdCmp                       0      0.00%     76.35% # Class of executed instruction
system.cpu0.op_class::SimdCvt                       0      0.00%     76.35% # Class of executed instruction
system.cpu0.op_class::SimdMisc                      0      0.00%     76.35% # Class of executed instruction
system.cpu0.op_class::SimdMult                      0      0.00%     76.35% # Class of executed instruction
system.cpu0.op_class::SimdMultAcc                   0      0.00%     76.35% # Class of executed instruction
system.cpu0.op_class::SimdShift                     0      0.00%     76.35% # Class of executed instruction
system.cpu0.op_class::SimdShiftAcc                  0      0.00%     76.35% # Class of executed instruction
system.cpu0.op_class::SimdSqrt                      0      0.00%     76.35% # Class of executed instruction
system.cpu0.op_class::SimdFloatAdd                  0      0.00%     76.35% # Class of executed instruction
system.cpu0.op_class::SimdFloatAlu                  0      0.00%     76.35% # Class of executed instruction
system.cpu0.op_class::SimdFloatCmp                  0      0.00%     76.35% # Class of executed instruction
system.cpu0.op_class::SimdFloatCvt                  0      0.00%     76.35% # Class of executed instruction
system.cpu0.op_class::SimdFloatDiv                  0      0.00%     76.35% # Class of executed instruction
system.cpu0.op_class::SimdFloatMisc                 0      0.00%     76.35% # Class of executed instruction
system.cpu0.op_class::SimdFloatMult                 0      0.00%     76.35% # Class of executed instruction
system.cpu0.op_class::SimdFloatMultAcc              0      0.00%     76.35% # Class of executed instruction
system.cpu0.op_class::SimdFloatSqrt                 0      0.00%     76.35% # Class of executed instruction
system.cpu0.op_class::MemRead                  490255     14.58%     90.92% # Class of executed instruction
system.cpu0.op_class::MemWrite                 305299      9.08%    100.00% # Class of executed instruction
system.cpu0.op_class::IprAccess                     0      0.00%    100.00% # Class of executed instruction
system.cpu0.op_class::InstPrefetch                  0      0.00%    100.00% # Class of executed instruction
system.cpu0.op_class::total                   3363356                       # Class of executed instruction
system.cpu1.apic_clk_domain.clock                8000                       # Clock period in ticks
system.cpu1.numCycles                      3768801316                       # number of cpu cycles simulated
system.cpu1.numWorkItemsStarted                     0                       # number of work items this cpu started
system.cpu1.numWorkItemsCompleted                   0                       # number of work items this cpu completed
system.cpu1.kern.inst.arm                           0                       # number of arm instructions executed
system.cpu1.kern.inst.quiesce                       0                       # number of quiesce instructions executed
system.cpu1.committedInsts                  717172845                       # Number of instructions committed
system.cpu1.committedOps                   1064450705                       # Number of ops (including micro ops) committed
system.cpu1.num_int_alu_accesses            463959281                       # Number of integer alu accesses
system.cpu1.num_fp_alu_accesses             708837843                       # Number of float alu accesses
system.cpu1.num_func_calls                     901413                       # number of times a function call or return occured
system.cpu1.num_conditional_control_insts     10836818                       # number of instructions that are conditional controls
system.cpu1.num_int_insts                   463959281                       # number of integer instructions
system.cpu1.num_fp_insts                    708837843                       # number of float instructions
system.cpu1.num_int_register_reads          972010496                       # number of times the integer registers were read
system.cpu1.num_int_register_writes         343827671                       # number of times the integer registers were written
system.cpu1.num_fp_register_reads          1593836311                       # number of times the floating registers were read
system.cpu1.num_fp_register_writes          654311799                       # number of times the floating registers were written
system.cpu1.num_cc_register_reads           111668840                       # number of times the CC registers were read
system.cpu1.num_cc_register_writes          201648564                       # number of times the CC registers were written
system.cpu1.num_mem_refs                    129362814                       # number of memory refs
system.cpu1.num_load_insts                   75450540                       # Number of load instructions
system.cpu1.num_store_insts                  53912274                       # Number of store instructions
system.cpu1.num_idle_cycles              13221120.205975                       # Number of idle cycles
system.cpu1.num_busy_cycles              3755580195.794025                       # Number of busy cycles
system.cpu1.not_idle_fraction                0.996492                       # Percentage of non-idle cycles
system.cpu1.idle_fraction                    0.003508                       # Percentage of idle cycles
system.cpu1.Branches                         12029809                       # Number of branches fetched
system.cpu1.op_class::No_OpClass               313790      0.03%      0.03% # Class of executed instruction
system.cpu1.op_class::IntAlu                431382581     40.53%     40.56% # Class of executed instruction
system.cpu1.op_class::IntMult                   89396      0.01%     40.56% # Class of executed instruction
system.cpu1.op_class::IntDiv                     1850      0.00%     40.56% # Class of executed instruction
system.cpu1.op_class::FloatAdd              503316796     47.28%     87.85% # Class of executed instruction
system.cpu1.op_class::FloatCmp                      0      0.00%     87.85% # Class of executed instruction
system.cpu1.op_class::FloatCvt                      0      0.00%     87.85% # Class of executed instruction
system.cpu1.op_class::FloatMult                     0      0.00%     87.85% # Class of executed instruction
system.cpu1.op_class::FloatDiv                      0      0.00%     87.85% # Class of executed instruction
system.cpu1.op_class::FloatSqrt                     0      0.00%     87.85% # Class of executed instruction
system.cpu1.op_class::SimdAdd                       0      0.00%     87.85% # Class of executed instruction
system.cpu1.op_class::SimdAddAcc                    0      0.00%     87.85% # Class of executed instruction
system.cpu1.op_class::SimdAlu                       0      0.00%     87.85% # Class of executed instruction
system.cpu1.op_class::SimdCmp                       0      0.00%     87.85% # Class of executed instruction
system.cpu1.op_class::SimdCvt                       0      0.00%     87.85% # Class of executed instruction
system.cpu1.op_class::SimdMisc                      0      0.00%     87.85% # Class of executed instruction
system.cpu1.op_class::SimdMult                      0      0.00%     87.85% # Class of executed instruction
system.cpu1.op_class::SimdMultAcc                   0      0.00%     87.85% # Class of executed instruction
system.cpu1.op_class::SimdShift                     0      0.00%     87.85% # Class of executed instruction
system.cpu1.op_class::SimdShiftAcc                  0      0.00%     87.85% # Class of executed instruction
system.cpu1.op_class::SimdSqrt                      0      0.00%     87.85% # Class of executed instruction
system.cpu1.op_class::SimdFloatAdd                  0      0.00%     87.85% # Class of executed instruction
system.cpu1.op_class::SimdFloatAlu                  0      0.00%     87.85% # Class of executed instruction
system.cpu1.op_class::SimdFloatCmp                  0      0.00%     87.85% # Class of executed instruction
system.cpu1.op_class::SimdFloatCvt                  0      0.00%     87.85% # Class of executed instruction
system.cpu1.op_class::SimdFloatDiv                  0      0.00%     87.85% # Class of executed instruction
system.cpu1.op_class::SimdFloatMisc                 0      0.00%     87.85% # Class of executed instruction
system.cpu1.op_class::SimdFloatMult                 0      0.00%     87.85% # Class of executed instruction
system.cpu1.op_class::SimdFloatMultAcc              0      0.00%     87.85% # Class of executed instruction
system.cpu1.op_class::SimdFloatSqrt                 0      0.00%     87.85% # Class of executed instruction
system.cpu1.op_class::MemRead                75450540      7.09%     94.94% # Class of executed instruction
system.cpu1.op_class::MemWrite               53912274      5.06%    100.00% # Class of executed instruction
system.cpu1.op_class::IprAccess                     0      0.00%    100.00% # Class of executed instruction
system.cpu1.op_class::InstPrefetch                  0      0.00%    100.00% # Class of executed instruction
system.cpu1.op_class::total                1064467227                       # Class of executed instruction
system.cpu2.apic_clk_domain.clock                8000                       # Clock period in ticks
system.cpu2.numCycles                      3767403660                       # number of cpu cycles simulated
system.cpu2.numWorkItemsStarted                     0                       # number of work items this cpu started
system.cpu2.numWorkItemsCompleted                   0                       # number of work items this cpu completed
system.cpu2.kern.inst.arm                           0                       # number of arm instructions executed
system.cpu2.kern.inst.quiesce                       0                       # number of quiesce instructions executed
system.cpu2.committedInsts                    1310891                       # Number of instructions committed
system.cpu2.committedOps                      2836477                       # Number of ops (including micro ops) committed
system.cpu2.num_int_alu_accesses              2773479                       # Number of integer alu accesses
system.cpu2.num_fp_alu_accesses                     0                       # Number of float alu accesses
system.cpu2.num_func_calls                      78218                       # number of times a function call or return occured
system.cpu2.num_conditional_control_insts       199426                       # number of instructions that are conditional controls
system.cpu2.num_int_insts                     2773479                       # number of integer instructions
system.cpu2.num_fp_insts                            0                       # number of float instructions
system.cpu2.num_int_register_reads            5636243                       # number of times the integer registers were read
system.cpu2.num_int_register_writes           2303184                       # number of times the integer registers were written
system.cpu2.num_fp_register_reads                   0                       # number of times the floating registers were read
system.cpu2.num_fp_register_writes                  0                       # number of times the floating registers were written
system.cpu2.num_cc_register_reads             1600106                       # number of times the CC registers were read
system.cpu2.num_cc_register_writes             836859                       # number of times the CC registers were written
system.cpu2.num_mem_refs                       675038                       # number of memory refs
system.cpu2.num_load_insts                     419973                       # Number of load instructions
system.cpu2.num_store_insts                    255065                       # Number of store instructions
system.cpu2.num_idle_cycles              3756291971.236050                       # Number of idle cycles
system.cpu2.num_busy_cycles              11111688.763950                       # Number of busy cycles
system.cpu2.not_idle_fraction                0.002949                       # Percentage of non-idle cycles
system.cpu2.idle_fraction                    0.997051                       # Percentage of idle cycles
system.cpu2.Branches                           303176                       # Number of branches fetched
system.cpu2.op_class::No_OpClass                54009      1.90%      1.90% # Class of executed instruction
system.cpu2.op_class::IntAlu                  2082535     73.42%     75.32% # Class of executed instruction
system.cpu2.op_class::IntMult                    5677      0.20%     75.52% # Class of executed instruction
system.cpu2.op_class::IntDiv                    19222      0.68%     76.20% # Class of executed instruction
system.cpu2.op_class::FloatAdd                      0      0.00%     76.20% # Class of executed instruction
system.cpu2.op_class::FloatCmp                      0      0.00%     76.20% # Class of executed instruction
system.cpu2.op_class::FloatCvt                      0      0.00%     76.20% # Class of executed instruction
system.cpu2.op_class::FloatMult                     0      0.00%     76.20% # Class of executed instruction
system.cpu2.op_class::FloatDiv                      0      0.00%     76.20% # Class of executed instruction
system.cpu2.op_class::FloatSqrt                     0      0.00%     76.20% # Class of executed instruction
system.cpu2.op_class::SimdAdd                       0      0.00%     76.20% # Class of executed instruction
system.cpu2.op_class::SimdAddAcc                    0      0.00%     76.20% # Class of executed instruction
system.cpu2.op_class::SimdAlu                       0      0.00%     76.20% # Class of executed instruction
system.cpu2.op_class::SimdCmp                       0      0.00%     76.20% # Class of executed instruction
system.cpu2.op_class::SimdCvt                       0      0.00%     76.20% # Class of executed instruction
system.cpu2.op_class::SimdMisc                      0      0.00%     76.20% # Class of executed instruction
system.cpu2.op_class::SimdMult                      0      0.00%     76.20% # Class of executed instruction
system.cpu2.op_class::SimdMultAcc                   0      0.00%     76.20% # Class of executed instruction
system.cpu2.op_class::SimdShift                     0      0.00%     76.20% # Class of executed instruction
system.cpu2.op_class::SimdShiftAcc                  0      0.00%     76.20% # Class of executed instruction
system.cpu2.op_class::SimdSqrt                      0      0.00%     76.20% # Class of executed instruction
system.cpu2.op_class::SimdFloatAdd                  0      0.00%     76.20% # Class of executed instruction
system.cpu2.op_class::SimdFloatAlu                  0      0.00%     76.20% # Class of executed instruction
system.cpu2.op_class::SimdFloatCmp                  0      0.00%     76.20% # Class of executed instruction
system.cpu2.op_class::SimdFloatCvt                  0      0.00%     76.20% # Class of executed instruction
system.cpu2.op_class::SimdFloatDiv                  0      0.00%     76.20% # Class of executed instruction
system.cpu2.op_class::SimdFloatMisc                 0      0.00%     76.20% # Class of executed instruction
system.cpu2.op_class::SimdFloatMult                 0      0.00%     76.20% # Class of executed instruction
system.cpu2.op_class::SimdFloatMultAcc              0      0.00%     76.20% # Class of executed instruction
system.cpu2.op_class::SimdFloatSqrt                 0      0.00%     76.20% # Class of executed instruction
system.cpu2.op_class::MemRead                  419973     14.81%     91.01% # Class of executed instruction
system.cpu2.op_class::MemWrite                 255065      8.99%    100.00% # Class of executed instruction
system.cpu2.op_class::IprAccess                     0      0.00%    100.00% # Class of executed instruction
system.cpu2.op_class::InstPrefetch                  0      0.00%    100.00% # Class of executed instruction
system.cpu2.op_class::total                   2836481                       # Class of executed instruction
system.cpu3.apic_clk_domain.clock                8000                       # Clock period in ticks
system.cpu3.numCycles                      3765001780                       # number of cpu cycles simulated
system.cpu3.numWorkItemsStarted                     0                       # number of work items this cpu started
system.cpu3.numWorkItemsCompleted                   0                       # number of work items this cpu completed
system.cpu3.kern.inst.arm                           0                       # number of arm instructions executed
system.cpu3.kern.inst.quiesce                       0                       # number of quiesce instructions executed
system.cpu3.committedInsts                    3872705                       # Number of instructions committed
system.cpu3.committedOps                      7761693                       # Number of ops (including micro ops) committed
system.cpu3.num_int_alu_accesses              7621241                       # Number of integer alu accesses
system.cpu3.num_fp_alu_accesses                  1778                       # Number of float alu accesses
system.cpu3.num_func_calls                     201928                       # number of times a function call or return occured
system.cpu3.num_conditional_control_insts       653052                       # number of instructions that are conditional controls
system.cpu3.num_int_insts                     7621241                       # number of integer instructions
system.cpu3.num_fp_insts                         1778                       # number of float instructions
system.cpu3.num_int_register_reads           15169615                       # number of times the integer registers were read
system.cpu3.num_int_register_writes           6204637                       # number of times the integer registers were written
system.cpu3.num_fp_register_reads                2988                       # number of times the floating registers were read
system.cpu3.num_fp_register_writes               1416                       # number of times the floating registers were written
system.cpu3.num_cc_register_reads             4904872                       # number of times the CC registers were read
system.cpu3.num_cc_register_writes            2637498                       # number of times the CC registers were written
system.cpu3.num_mem_refs                      1755518                       # number of memory refs
system.cpu3.num_load_insts                    1137879                       # Number of load instructions
system.cpu3.num_store_insts                    617639                       # Number of store instructions
system.cpu3.num_idle_cycles              3743019493.687408                       # Number of idle cycles
system.cpu3.num_busy_cycles              21982286.312592                       # Number of busy cycles
system.cpu3.not_idle_fraction                0.005839                       # Percentage of non-idle cycles
system.cpu3.idle_fraction                    0.994161                       # Percentage of idle cycles
system.cpu3.Branches                           891733                       # Number of branches fetched
system.cpu3.op_class::No_OpClass                58214      0.75%      0.75% # Class of executed instruction
system.cpu3.op_class::IntAlu                  5920339     76.28%     77.03% # Class of executed instruction
system.cpu3.op_class::IntMult                    6734      0.09%     77.11% # Class of executed instruction
system.cpu3.op_class::IntDiv                    19634      0.25%     77.37% # Class of executed instruction
system.cpu3.op_class::FloatAdd                   1344      0.02%     77.38% # Class of executed instruction
system.cpu3.op_class::FloatCmp                      0      0.00%     77.38% # Class of executed instruction
system.cpu3.op_class::FloatCvt                      0      0.00%     77.38% # Class of executed instruction
system.cpu3.op_class::FloatMult                     0      0.00%     77.38% # Class of executed instruction
system.cpu3.op_class::FloatDiv                      0      0.00%     77.38% # Class of executed instruction
system.cpu3.op_class::FloatSqrt                     0      0.00%     77.38% # Class of executed instruction
system.cpu3.op_class::SimdAdd                       0      0.00%     77.38% # Class of executed instruction
system.cpu3.op_class::SimdAddAcc                    0      0.00%     77.38% # Class of executed instruction
system.cpu3.op_class::SimdAlu                       0      0.00%     77.38% # Class of executed instruction
system.cpu3.op_class::SimdCmp                       0      0.00%     77.38% # Class of executed instruction
system.cpu3.op_class::SimdCvt                       0      0.00%     77.38% # Class of executed instruction
system.cpu3.op_class::SimdMisc                      0      0.00%     77.38% # Class of executed instruction
system.cpu3.op_class::SimdMult                      0      0.00%     77.38% # Class of executed instruction
system.cpu3.op_class::SimdMultAcc                   0      0.00%     77.38% # Class of executed instruction
system.cpu3.op_class::SimdShift                     0      0.00%     77.38% # Class of executed instruction
system.cpu3.op_class::SimdShiftAcc                  0      0.00%     77.38% # Class of executed instruction
system.cpu3.op_class::SimdSqrt                      0      0.00%     77.38% # Class of executed instruction
system.cpu3.op_class::SimdFloatAdd                  0      0.00%     77.38% # Class of executed instruction
system.cpu3.op_class::SimdFloatAlu                  0      0.00%     77.38% # Class of executed instruction
system.cpu3.op_class::SimdFloatCmp                  0      0.00%     77.38% # Class of executed instruction
system.cpu3.op_class::SimdFloatCvt                  0      0.00%     77.38% # Class of executed instruction
system.cpu3.op_class::SimdFloatDiv                  0      0.00%     77.38% # Class of executed instruction
system.cpu3.op_class::SimdFloatMisc                 0      0.00%     77.38% # Class of executed instruction
system.cpu3.op_class::SimdFloatMult                 0      0.00%     77.38% # Class of executed instruction
system.cpu3.op_class::SimdFloatMultAcc              0      0.00%     77.38% # Class of executed instruction
system.cpu3.op_class::SimdFloatSqrt                 0      0.00%     77.38% # Class of executed instruction
system.cpu3.op_class::MemRead                 1137879     14.66%     92.04% # Class of executed instruction
system.cpu3.op_class::MemWrite                 617639      7.96%    100.00% # Class of executed instruction
system.cpu3.op_class::IprAccess                     0      0.00%    100.00% # Class of executed instruction
system.cpu3.op_class::InstPrefetch                  0      0.00%    100.00% # Class of executed instruction
system.cpu3.op_class::total                   7761783                       # Class of executed instruction
system.iobus.trans_dist::ReadReq                   82                       # Transaction distribution
system.iobus.trans_dist::ReadResp                  82                       # Transaction distribution
system.iobus.trans_dist::WriteReq                1945                       # Transaction distribution
system.iobus.trans_dist::WriteResp               1945                       # Transaction distribution
system.iobus.trans_dist::MessageReq                12                       # Transaction distribution
system.iobus.trans_dist::MessageResp               12                       # Transaction distribution
system.iobus.pkt_count_system.pc.south_bridge.io_apic.int_master::system.ruby.l1_cntrl0.sequencer.pio-slave-port            2                       # Packet count per connected master and slave (bytes)
system.iobus.pkt_count_system.pc.south_bridge.io_apic.int_master::system.ruby.l1_cntrl1.sequencer.pio-slave-port            4                       # Packet count per connected master and slave (bytes)
system.iobus.pkt_count_system.pc.south_bridge.io_apic.int_master::system.ruby.l1_cntrl2.sequencer.pio-slave-port            2                       # Packet count per connected master and slave (bytes)
system.iobus.pkt_count_system.pc.south_bridge.io_apic.int_master::system.ruby.l1_cntrl3.sequencer.pio-slave-port            2                       # Packet count per connected master and slave (bytes)
system.iobus.pkt_count_system.pc.south_bridge.io_apic.int_master::total           10                       # Packet count per connected master and slave (bytes)
system.iobus.pkt_count_system.ruby.l1_cntrl0.sequencer.mem-master-port::system.pc.south_bridge.io_apic.pio            6                       # Packet count per connected master and slave (bytes)
system.iobus.pkt_count_system.ruby.l1_cntrl0.sequencer.mem-master-port::system.pc.com_1.pio           22                       # Packet count per connected master and slave (bytes)
system.iobus.pkt_count_system.ruby.l1_cntrl0.sequencer.mem-master-port::system.ruby.l1_cntrl0.sequencer.pio-slave-port          954                       # Packet count per connected master and slave (bytes)
system.iobus.pkt_count_system.ruby.l1_cntrl0.sequencer.mem-master-port::system.ruby.l1_cntrl1.sequencer.pio-slave-port            2                       # Packet count per connected master and slave (bytes)
system.iobus.pkt_count_system.ruby.l1_cntrl0.sequencer.mem-master-port::total          984                       # Packet count per connected master and slave (bytes)
system.iobus.pkt_count_system.ruby.l1_cntrl1.sequencer.mem-master-port::system.pc.south_bridge.io_apic.pio           14                       # Packet count per connected master and slave (bytes)
system.iobus.pkt_count_system.ruby.l1_cntrl1.sequencer.mem-master-port::system.pc.com_1.pio          162                       # Packet count per connected master and slave (bytes)
system.iobus.pkt_count_system.ruby.l1_cntrl1.sequencer.mem-master-port::system.ruby.l1_cntrl0.sequencer.pio-slave-port            2                       # Packet count per connected master and slave (bytes)
system.iobus.pkt_count_system.ruby.l1_cntrl1.sequencer.mem-master-port::system.ruby.l1_cntrl1.sequencer.pio-slave-port          962                       # Packet count per connected master and slave (bytes)
system.iobus.pkt_count_system.ruby.l1_cntrl1.sequencer.mem-master-port::system.ruby.l1_cntrl2.sequencer.pio-slave-port            2                       # Packet count per connected master and slave (bytes)
system.iobus.pkt_count_system.ruby.l1_cntrl1.sequencer.mem-master-port::total         1142                       # Packet count per connected master and slave (bytes)
system.iobus.pkt_count_system.ruby.l1_cntrl2.sequencer.mem-master-port::system.pc.south_bridge.io_apic.pio            8                       # Packet count per connected master and slave (bytes)
system.iobus.pkt_count_system.ruby.l1_cntrl2.sequencer.mem-master-port::system.ruby.l1_cntrl2.sequencer.pio-slave-port          954                       # Packet count per connected master and slave (bytes)
system.iobus.pkt_count_system.ruby.l1_cntrl2.sequencer.mem-master-port::system.ruby.l1_cntrl3.sequencer.pio-slave-port            2                       # Packet count per connected master and slave (bytes)
system.iobus.pkt_count_system.ruby.l1_cntrl2.sequencer.mem-master-port::total          964                       # Packet count per connected master and slave (bytes)
system.iobus.pkt_count_system.ruby.l1_cntrl3.sequencer.mem-master-port::system.pc.south_bridge.io_apic.pio            8                       # Packet count per connected master and slave (bytes)
system.iobus.pkt_count_system.ruby.l1_cntrl3.sequencer.mem-master-port::system.ruby.l1_cntrl0.sequencer.pio-slave-port            2                       # Packet count per connected master and slave (bytes)
system.iobus.pkt_count_system.ruby.l1_cntrl3.sequencer.mem-master-port::system.ruby.l1_cntrl1.sequencer.pio-slave-port            2                       # Packet count per connected master and slave (bytes)
system.iobus.pkt_count_system.ruby.l1_cntrl3.sequencer.mem-master-port::system.ruby.l1_cntrl2.sequencer.pio-slave-port            2                       # Packet count per connected master and slave (bytes)
system.iobus.pkt_count_system.ruby.l1_cntrl3.sequencer.mem-master-port::system.ruby.l1_cntrl3.sequencer.pio-slave-port          964                       # Packet count per connected master and slave (bytes)
system.iobus.pkt_count_system.ruby.l1_cntrl3.sequencer.mem-master-port::total          978                       # Packet count per connected master and slave (bytes)
system.iobus.pkt_count::total                    4078                       # Packet count per connected master and slave (bytes)
system.iobus.pkt_size_system.pc.south_bridge.io_apic.int_master::system.ruby.l1_cntrl0.sequencer.pio-slave-port            4                       # Cumulative packet size per connected master and slave (bytes)
system.iobus.pkt_size_system.pc.south_bridge.io_apic.int_master::system.ruby.l1_cntrl1.sequencer.pio-slave-port            8                       # Cumulative packet size per connected master and slave (bytes)
system.iobus.pkt_size_system.pc.south_bridge.io_apic.int_master::system.ruby.l1_cntrl2.sequencer.pio-slave-port            4                       # Cumulative packet size per connected master and slave (bytes)
system.iobus.pkt_size_system.pc.south_bridge.io_apic.int_master::system.ruby.l1_cntrl3.sequencer.pio-slave-port            4                       # Cumulative packet size per connected master and slave (bytes)
system.iobus.pkt_size_system.pc.south_bridge.io_apic.int_master::total           20                       # Cumulative packet size per connected master and slave (bytes)
system.iobus.pkt_size_system.ruby.l1_cntrl0.sequencer.mem-master-port::system.pc.south_bridge.io_apic.pio           12                       # Cumulative packet size per connected master and slave (bytes)
system.iobus.pkt_size_system.ruby.l1_cntrl0.sequencer.mem-master-port::system.pc.com_1.pio           11                       # Cumulative packet size per connected master and slave (bytes)
system.iobus.pkt_size_system.ruby.l1_cntrl0.sequencer.mem-master-port::system.ruby.l1_cntrl0.sequencer.pio-slave-port         1908                       # Cumulative packet size per connected master and slave (bytes)
system.iobus.pkt_size_system.ruby.l1_cntrl0.sequencer.mem-master-port::system.ruby.l1_cntrl1.sequencer.pio-slave-port            4                       # Cumulative packet size per connected master and slave (bytes)
system.iobus.pkt_size_system.ruby.l1_cntrl0.sequencer.mem-master-port::total         1935                       # Cumulative packet size per connected master and slave (bytes)
system.iobus.pkt_size_system.ruby.l1_cntrl1.sequencer.mem-master-port::system.pc.south_bridge.io_apic.pio           28                       # Cumulative packet size per connected master and slave (bytes)
system.iobus.pkt_size_system.ruby.l1_cntrl1.sequencer.mem-master-port::system.pc.com_1.pio           81                       # Cumulative packet size per connected master and slave (bytes)
system.iobus.pkt_size_system.ruby.l1_cntrl1.sequencer.mem-master-port::system.ruby.l1_cntrl0.sequencer.pio-slave-port            4                       # Cumulative packet size per connected master and slave (bytes)
system.iobus.pkt_size_system.ruby.l1_cntrl1.sequencer.mem-master-port::system.ruby.l1_cntrl1.sequencer.pio-slave-port         1924                       # Cumulative packet size per connected master and slave (bytes)
system.iobus.pkt_size_system.ruby.l1_cntrl1.sequencer.mem-master-port::system.ruby.l1_cntrl2.sequencer.pio-slave-port            4                       # Cumulative packet size per connected master and slave (bytes)
system.iobus.pkt_size_system.ruby.l1_cntrl1.sequencer.mem-master-port::total         2041                       # Cumulative packet size per connected master and slave (bytes)
system.iobus.pkt_size_system.ruby.l1_cntrl2.sequencer.mem-master-port::system.pc.south_bridge.io_apic.pio           16                       # Cumulative packet size per connected master and slave (bytes)
system.iobus.pkt_size_system.ruby.l1_cntrl2.sequencer.mem-master-port::system.ruby.l1_cntrl2.sequencer.pio-slave-port         1908                       # Cumulative packet size per connected master and slave (bytes)
system.iobus.pkt_size_system.ruby.l1_cntrl2.sequencer.mem-master-port::system.ruby.l1_cntrl3.sequencer.pio-slave-port            4                       # Cumulative packet size per connected master and slave (bytes)
system.iobus.pkt_size_system.ruby.l1_cntrl2.sequencer.mem-master-port::total         1928                       # Cumulative packet size per connected master and slave (bytes)
system.iobus.pkt_size_system.ruby.l1_cntrl3.sequencer.mem-master-port::system.pc.south_bridge.io_apic.pio           16                       # Cumulative packet size per connected master and slave (bytes)
system.iobus.pkt_size_system.ruby.l1_cntrl3.sequencer.mem-master-port::system.ruby.l1_cntrl0.sequencer.pio-slave-port            4                       # Cumulative packet size per connected master and slave (bytes)
system.iobus.pkt_size_system.ruby.l1_cntrl3.sequencer.mem-master-port::system.ruby.l1_cntrl1.sequencer.pio-slave-port            4                       # Cumulative packet size per connected master and slave (bytes)
system.iobus.pkt_size_system.ruby.l1_cntrl3.sequencer.mem-master-port::system.ruby.l1_cntrl2.sequencer.pio-slave-port            4                       # Cumulative packet size per connected master and slave (bytes)
system.iobus.pkt_size_system.ruby.l1_cntrl3.sequencer.mem-master-port::system.ruby.l1_cntrl3.sequencer.pio-slave-port         1928                       # Cumulative packet size per connected master and slave (bytes)
system.iobus.pkt_size_system.ruby.l1_cntrl3.sequencer.mem-master-port::total         1956                       # Cumulative packet size per connected master and slave (bytes)
system.iobus.pkt_size::total                     7880                       # Cumulative packet size per connected master and slave (bytes)
system.iobus.reqLayer8.occupancy                32496                       # Layer occupancy (ticks)
system.iobus.reqLayer8.utilization                0.0                       # Layer utilization (%)
system.iobus.reqLayer12.occupancy              120000                       # Layer occupancy (ticks)
system.iobus.reqLayer12.utilization               0.0                       # Layer utilization (%)
system.iobus.reqLayer17.occupancy             1086999                       # Layer occupancy (ticks)
system.iobus.reqLayer17.utilization               0.0                       # Layer utilization (%)
system.iobus.reqLayer18.occupancy             1220740                       # Layer occupancy (ticks)
system.iobus.reqLayer18.utilization               0.0                       # Layer utilization (%)
system.iobus.reqLayer19.occupancy             1082000                       # Layer occupancy (ticks)
system.iobus.reqLayer19.utilization               0.0                       # Layer utilization (%)
system.iobus.reqLayer20.occupancy             1098498                       # Layer occupancy (ticks)
system.iobus.reqLayer20.utilization               0.0                       # Layer utilization (%)
system.iobus.respLayer0.occupancy                6000                       # Layer occupancy (ticks)
system.iobus.respLayer0.utilization               0.0                       # Layer utilization (%)
system.iobus.respLayer2.occupancy              740500                       # Layer occupancy (ticks)
system.iobus.respLayer2.utilization               0.0                       # Layer utilization (%)
system.iobus.respLayer4.occupancy              875500                       # Layer occupancy (ticks)
system.iobus.respLayer4.utilization               0.0                       # Layer utilization (%)
system.iobus.respLayer6.occupancy              723500                       # Layer occupancy (ticks)
system.iobus.respLayer6.utilization               0.0                       # Layer utilization (%)
system.iobus.respLayer8.occupancy              735000                       # Layer occupancy (ticks)
system.iobus.respLayer8.utilization               0.0                       # Layer utilization (%)
system.pc.south_bridge.ide.disks.dma_read_full_pages            0                       # Number of full page size DMA reads (not PRD).
system.pc.south_bridge.ide.disks.dma_read_bytes            0                       # Number of bytes transfered via DMA reads (not PRD).
system.pc.south_bridge.ide.disks.dma_read_txs            0                       # Number of DMA read transactions (not PRD).
system.pc.south_bridge.ide.disks.dma_write_full_pages            0                       # Number of full page size DMA writes.
system.pc.south_bridge.ide.disks.dma_write_bytes            0                       # Number of bytes transfered via DMA writes.
system.pc.south_bridge.ide.disks.dma_write_txs            0                       # Number of DMA write transactions.
system.ruby.clk_domain.clock                      500                       # Clock period in ticks
system.ruby.delayHist::bucket_size                  4                       # delay histogram for all message
system.ruby.delayHist::max_bucket                  39                       # delay histogram for all message
system.ruby.delayHist::samples              130651856                       # delay histogram for all message
system.ruby.delayHist::mean                  0.847830                       # delay histogram for all message
system.ruby.delayHist::stdev                 2.462546                       # delay histogram for all message
system.ruby.delayHist                    |   116821850     89.41%     89.41% |       20486      0.02%     89.43% |    13804161     10.57%    100.00% |        1342      0.00%    100.00% |        3994      0.00%    100.00% |           7      0.00%    100.00% |           7      0.00%    100.00% |           8      0.00%    100.00% |           0      0.00%    100.00% |           1      0.00%    100.00% # delay histogram for all message
system.ruby.delayHist::total                130651856                       # delay histogram for all message
system.ruby.outstanding_req_hist_seqr::bucket_size            1                      
system.ruby.outstanding_req_hist_seqr::max_bucket            9                      
system.ruby.outstanding_req_hist_seqr::samples   1226296509                      
system.ruby.outstanding_req_hist_seqr::mean     1.000000                      
system.ruby.outstanding_req_hist_seqr::gmean     1.000000                      
system.ruby.outstanding_req_hist_seqr::stdev     0.000432                      
system.ruby.outstanding_req_hist_seqr    |           0      0.00%      0.00% |  1226296280    100.00%    100.00% |         229      0.00%    100.00% |           0      0.00%    100.00% |           0      0.00%    100.00% |           0      0.00%    100.00% |           0      0.00%    100.00% |           0      0.00%    100.00% |           0      0.00%    100.00% |           0      0.00%    100.00%
system.ruby.outstanding_req_hist_seqr::total   1226296509                      
system.ruby.latency_hist_seqr::bucket_size          512                      
system.ruby.latency_hist_seqr::max_bucket         5119                      
system.ruby.latency_hist_seqr::samples     1226296509                      
system.ruby.latency_hist_seqr::mean          2.097647                      
system.ruby.latency_hist_seqr::gmean         1.070058                      
system.ruby.latency_hist_seqr::stdev        14.060292                      
system.ruby.latency_hist_seqr            |  1226107072     99.98%     99.98% |      174854      0.01%    100.00% |       12553      0.00%    100.00% |        1899      0.00%    100.00% |         129      0.00%    100.00% |           2      0.00%    100.00% |           0      0.00%    100.00% |           0      0.00%    100.00% |           0      0.00%    100.00% |           0      0.00%    100.00%
system.ruby.latency_hist_seqr::total       1226296509                      
system.ruby.hit_latency_hist_seqr::bucket_size            1                      
system.ruby.hit_latency_hist_seqr::max_bucket            9                      
system.ruby.hit_latency_hist_seqr::samples   1202784217                      
system.ruby.hit_latency_hist_seqr::mean             1                      
system.ruby.hit_latency_hist_seqr::gmean            1                      
system.ruby.hit_latency_hist_seqr        |           0      0.00%      0.00% |  1202784217    100.00%    100.00% |           0      0.00%    100.00% |           0      0.00%    100.00% |           0      0.00%    100.00% |           0      0.00%    100.00% |           0      0.00%    100.00% |           0      0.00%    100.00% |           0      0.00%    100.00% |           0      0.00%    100.00%
system.ruby.hit_latency_hist_seqr::total   1202784217                      
system.ruby.miss_latency_hist_seqr::bucket_size          512                      
[...]
system.ruby.DMA_Controller.WriteRequest::total          128                      
system.ruby.DMA_Controller.Data          |           2    100.00%    100.00% |           0      0.00%    100.00%
system.ruby.DMA_Controller.Data::total              2                      
system.ruby.DMA_Controller.Ack           |         128    100.00%    100.00% |           0      0.00%    100.00%
system.ruby.DMA_Controller.Ack::total             128                      
system.ruby.DMA_Controller.READY.ReadRequest |           2    100.00%    100.00% |           0      0.00%    100.00%
system.ruby.DMA_Controller.READY.ReadRequest::total            2                      
system.ruby.DMA_Controller.READY.WriteRequest |         128    100.00%    100.00% |           0      0.00%    100.00%
system.ruby.DMA_Controller.READY.WriteRequest::total          128                      
system.ruby.DMA_Controller.BUSY_RD.Data  |           2    100.00%    100.00% |           0      0.00%    100.00%
system.ruby.DMA_Controller.BUSY_RD.Data::total            2                      
system.ruby.DMA_Controller.BUSY_WR.Ack   |         128    100.00%    100.00% |           0      0.00%    100.00%
system.ruby.DMA_Controller.BUSY_WR.Ack::total          128                      
system.ruby.L1Cache_Controller.Load      |      762701      0.83%      0.83% |    87128340     94.62%     95.45% |      858983      0.93%     96.38% |     3335400      3.62%    100.00%
system.ruby.L1Cache_Controller.Load::total     92085424                      
system.ruby.L1Cache_Controller.Ifetch    |     3589124      0.33%      0.33% |  1050461203     97.42%     97.75% |     4152456      0.39%     98.14% |    20080145      1.86%    100.00%
system.ruby.L1Cache_Controller.Ifetch::total   1078282928                      
system.ruby.L1Cache_Controller.Store     |      576535      0.69%      0.69% |    79925406     95.45%     96.14% |      666095      0.80%     96.93% |     2567015      3.07%    100.00%
system.ruby.L1Cache_Controller.Store::total     83735051                      
system.ruby.L1Cache_Controller.Inv       |       70421     26.22%     26.22% |       64924     24.17%     50.39% |       61540     22.91%     73.31% |       71694     26.69%    100.00%
system.ruby.L1Cache_Controller.Inv::total       268579                      
system.ruby.L1Cache_Controller.L1_Replacement |       66783      0.28%      0.28% |    23213494     98.50%     98.79% |       52199      0.22%     99.01% |      233910      0.99%    100.00%
system.ruby.L1Cache_Controller.L1_Replacement::total     23566386                      
system.ruby.L1Cache_Controller.Fwd_GETX  |        1468     34.20%     34.20% |         814     18.96%     53.16% |        1257     29.28%     82.44% |         754     17.56%    100.00%
system.ruby.L1Cache_Controller.Fwd_GETX::total         4293                      
system.ruby.L1Cache_Controller.Fwd_GETS  |        7001     38.51%     38.51% |        2141     11.78%     50.29% |        6143     33.79%     84.09% |        2893     15.91%    100.00%
system.ruby.L1Cache_Controller.Fwd_GETS::total        18178                      
system.ruby.L1Cache_Controller.Data      |          94      6.51%      6.51% |         659     45.64%     52.15% |         565     39.13%     91.27% |         126      8.73%    100.00%
system.ruby.L1Cache_Controller.Data::total         1444                      
system.ruby.L1Cache_Controller.Data_Exclusive |       23556      0.17%      0.17% |    13403664     98.71%     98.88% |       22787      0.17%     99.05% |      128760      0.95%    100.00%
system.ruby.L1Cache_Controller.Data_Exclusive::total     13578767                      
system.ruby.L1Cache_Controller.DataS_fromL1 |        6309     34.71%     34.71% |        1796      9.88%     44.59% |        2998     16.49%     61.08% |        7075     38.92%    100.00%
system.ruby.L1Cache_Controller.DataS_fromL1::total        18178                      
system.ruby.L1Cache_Controller.Data_all_Acks |       92615      0.91%      0.91% |     9850894     96.87%     97.78% |       76235      0.75%     98.53% |      149349      1.47%    100.00%
system.ruby.L1Cache_Controller.Data_all_Acks::total     10169093                      
system.ruby.L1Cache_Controller.Ack       |        9478     48.55%     48.55% |        3980     20.39%     68.94% |        2639     13.52%     82.46% |        3425     17.54%    100.00%
system.ruby.L1Cache_Controller.Ack::total        19522                      
system.ruby.L1Cache_Controller.Ack_all   |        4523     38.42%     38.42% |        2542     21.59%     60.01% |        2124     18.04%     78.04% |        2585     21.96%    100.00%
system.ruby.L1Cache_Controller.Ack_all::total        11774                      
system.ruby.L1Cache_Controller.WB_Ack    |       20198      0.09%      0.09% |    23141202     99.09%     99.18% |       16515      0.07%     99.25% |      174674      0.75%    100.00%
system.ruby.L1Cache_Controller.WB_Ack::total     23352589                      
system.ruby.L1Cache_Controller.NP.Load   |       21750      0.16%      0.16% |    13415347     98.75%     98.91% |       17732      0.13%     99.04% |      130108      0.96%    100.00%
system.ruby.L1Cache_Controller.NP.Load::total     13584937                      
system.ruby.L1Cache_Controller.NP.Ifetch |       35830     22.29%     22.29% |       52815     32.85%     55.14% |       25534     15.88%     71.03% |       46579     28.97%    100.00%
system.ruby.L1Cache_Controller.NP.Ifetch::total       160758                      
system.ruby.L1Cache_Controller.NP.Store  |        9735      0.10%      0.10% |     9745332     99.23%     99.32% |        9136      0.09%     99.42% |       57224      0.58%    100.00%
system.ruby.L1Cache_Controller.NP.Store::total      9821427                      
system.ruby.L1Cache_Controller.NP.Inv    |        7048     19.69%     19.69% |       12558     35.08%     54.77% |        4264     11.91%     66.68% |       11928     33.32%    100.00%
system.ruby.L1Cache_Controller.NP.Inv::total        35798                      
system.ruby.L1Cache_Controller.I.Load    |       11966     28.37%     28.37% |        2424      5.75%     34.11% |       14044     33.29%     67.40% |       13750     32.60%    100.00%
system.ruby.L1Cache_Controller.I.Load::total        42184                      
system.ruby.L1Cache_Controller.I.Ifetch  |       33781     27.66%     27.66% |       29738     24.35%     52.01% |       29468     24.13%     76.15% |       29131     23.85%    100.00%
system.ruby.L1Cache_Controller.I.Ifetch::total       122118                      
system.ruby.L1Cache_Controller.I.Store   |        9512     26.38%     26.38% |       11357     31.50%     57.88% |        6671     18.50%     76.38% |        8517     23.62%    100.00%
system.ruby.L1Cache_Controller.I.Store::total        36057                      
system.ruby.L1Cache_Controller.I.L1_Replacement |        8988     25.16%     25.16% |        9493     26.57%     51.73% |        8125     22.74%     74.48% |        9118     25.52%    100.00%
system.ruby.L1Cache_Controller.I.L1_Replacement::total        35724                      
system.ruby.L1Cache_Controller.S.Load    |      113230     19.29%     19.29% |       93871     16.00%     35.29% |      125382     21.37%     56.66% |      254364     43.34%    100.00%
system.ruby.L1Cache_Controller.S.Load::total       586847                      
system.ruby.L1Cache_Controller.S.Ifetch  |     3519513      0.33%      0.33% |  1050378649     97.44%     97.76% |     4097454      0.38%     98.14% |    20004434      1.86%    100.00%
system.ruby.L1Cache_Controller.S.Ifetch::total   1078000050                      
system.ruby.L1Cache_Controller.S.Store   |        4429     42.87%     42.87% |        1883     18.23%     61.10% |        1559     15.09%     76.19% |        2460     23.81%    100.00%
system.ruby.L1Cache_Controller.S.Store::total        10331                      
system.ruby.L1Cache_Controller.S.Inv     |       44736     27.74%     27.74% |       34321     21.28%     49.03% |       41079     25.47%     74.50% |       41119     25.50%    100.00%
system.ruby.L1Cache_Controller.S.Inv::total       161255                      
system.ruby.L1Cache_Controller.S.L1_Replacement |       37597     21.11%     21.11% |       62799     35.27%     56.38% |       27559     15.48%     71.86% |       50118     28.14%    100.00%
system.ruby.L1Cache_Controller.S.L1_Replacement::total       178073                      
system.ruby.L1Cache_Controller.E.Load    |      117410      0.19%      0.19% |    61134825     98.71%     98.89% |      123607      0.20%     99.09% |      560989      0.91%    100.00%
system.ruby.L1Cache_Controller.E.Load::total     61936831                      
system.ruby.L1Cache_Controller.E.Store   |        6149      0.15%      0.15% |     4013190     97.82%     97.97% |        4075      0.10%     98.07% |       79243      1.93%    100.00%
system.ruby.L1Cache_Controller.E.Store::total      4102657                      
system.ruby.L1Cache_Controller.E.Inv     |        6518     28.00%     28.00% |        2807     12.06%     40.05% |        6810     29.25%     69.30% |        7147     30.70%    100.00%
system.ruby.L1Cache_Controller.E.Inv::total        23282                      
system.ruby.L1Cache_Controller.E.L1_Replacement |        7472      0.08%      0.08% |     9386636     99.41%     99.49% |        6707      0.07%     99.56% |       41189      0.44%    100.00%
system.ruby.L1Cache_Controller.E.L1_Replacement::total      9442004                      
system.ruby.L1Cache_Controller.E.Fwd_GETX |         709     38.04%     38.04% |         364     19.53%     57.56% |         617     33.10%     90.67% |         174      9.33%    100.00%
system.ruby.L1Cache_Controller.E.Fwd_GETX::total         1864                      
system.ruby.L1Cache_Controller.E.Fwd_GETS |        2685     30.55%     30.55% |         662      7.53%     38.08% |        4458     50.72%     88.80% |         984     11.20%    100.00%
system.ruby.L1Cache_Controller.E.Fwd_GETS::total         8789                      
system.ruby.L1Cache_Controller.M.Load    |      498345      3.13%      3.13% |    12481873     78.33%     81.46% |      578218      3.63%     85.09% |     2376189     14.91%    100.00%
system.ruby.L1Cache_Controller.M.Load::total     15934625                      
system.ruby.L1Cache_Controller.M.Store   |      546710      0.78%      0.78% |    66153644     94.82%     95.61% |      644654      0.92%     96.53% |     2419571      3.47%    100.00%
system.ruby.L1Cache_Controller.M.Store::total     69764579                      
system.ruby.L1Cache_Controller.M.Inv     |       12119     25.12%     25.12% |       15238     31.59%     56.71% |        9387     19.46%     76.16% |       11499     23.84%    100.00%
system.ruby.L1Cache_Controller.M.Inv::total        48243                      
system.ruby.L1Cache_Controller.M.L1_Replacement |       12726      0.09%      0.09% |    13754566     98.88%     98.97% |        9808      0.07%     99.04% |      133485      0.96%    100.00%
system.ruby.L1Cache_Controller.M.L1_Replacement::total     13910585                      
system.ruby.L1Cache_Controller.M.Fwd_GETX |         759     31.25%     31.25% |         450     18.53%     49.77% |         640     26.35%     76.12% |         580     23.88%    100.00%
system.ruby.L1Cache_Controller.M.Fwd_GETX::total         2429                      
system.ruby.L1Cache_Controller.M.Fwd_GETS |        4316     45.97%     45.97% |        1479     15.75%     61.72% |        1685     17.95%     79.67% |        1909     20.33%    100.00%
system.ruby.L1Cache_Controller.M.Fwd_GETS::total         9389                      
system.ruby.L1Cache_Controller.IS.Data_Exclusive |       23556      0.17%      0.17% |    13403664     98.71%     98.88% |       22787      0.17%     99.05% |      128760      0.95%    100.00%
system.ruby.L1Cache_Controller.IS.Data_Exclusive::total     13578767                      
system.ruby.L1Cache_Controller.IS.DataS_fromL1 |        6309     34.71%     34.71% |        1796      9.88%     44.59% |        2998     16.49%     61.08% |        7075     38.92%    100.00%
system.ruby.L1Cache_Controller.IS.DataS_fromL1::total        18178                      
system.ruby.L1Cache_Controller.IS.Data_all_Acks |       73462     23.47%     23.47% |       94864     30.30%     53.77% |       60993     19.48%     73.25% |       83733     26.75%    100.00%
system.ruby.L1Cache_Controller.IS.Data_all_Acks::total       313052                      
system.ruby.L1Cache_Controller.IM.Data   |          94      6.51%      6.51% |         659     45.64%     52.15% |         565     39.13%     91.27% |         126      8.73%    100.00%
system.ruby.L1Cache_Controller.IM.Data::total         1444                      
system.ruby.L1Cache_Controller.IM.Data_all_Acks |       19153      0.19%      0.19% |     9756030     98.99%     99.18% |       15242      0.15%     99.33% |       65616      0.67%    100.00%
system.ruby.L1Cache_Controller.IM.Data_all_Acks::total      9856041                      
system.ruby.L1Cache_Controller.SM.Inv    |           0      0.00%      0.00% |           0      0.00%      0.00% |           0      0.00%      0.00% |           1    100.00%    100.00%
system.ruby.L1Cache_Controller.SM.Inv::total            1                      
system.ruby.L1Cache_Controller.SM.Ack    |        9478     48.55%     48.55% |        3980     20.39%     68.94% |        2639     13.52%     82.46% |        3425     17.54%    100.00%
system.ruby.L1Cache_Controller.SM.Ack::total        19522                      
system.ruby.L1Cache_Controller.SM.Ack_all |        4523     38.42%     38.42% |        2542     21.59%     60.01% |        2124     18.04%     78.04% |        2585     21.96%    100.00%
system.ruby.L1Cache_Controller.SM.Ack_all::total        11774                      
system.ruby.L1Cache_Controller.M_I.Ifetch |           0      0.00%      0.00% |           1     50.00%     50.00% |           0      0.00%     50.00% |           1     50.00%    100.00%
system.ruby.L1Cache_Controller.M_I.Ifetch::total            2                      
system.ruby.L1Cache_Controller.M_I.WB_Ack |       20198      0.09%      0.09% |    23141202     99.09%     99.18% |       16515      0.07%     99.25% |      174674      0.75%    100.00%
system.ruby.L1Cache_Controller.M_I.WB_Ack::total     23352589                      
system.ruby.L2Cache_Controller.L1_GET_INSTR       282880      0.00%      0.00%
system.ruby.L2Cache_Controller.L1_GETS       13627334      0.00%      0.00%
system.ruby.L2Cache_Controller.L1_GETX        9857489      0.00%      0.00%
system.ruby.L2Cache_Controller.L1_UPGRADE        10331      0.00%      0.00%
system.ruby.L2Cache_Controller.L1_PUTX       23352589      0.00%      0.00%
system.ruby.L2Cache_Controller.L2_Replacement      3492576      0.00%      0.00%
system.ruby.L2Cache_Controller.L2_Replacement_clean      3321643      0.00%      0.00%
system.ruby.L2Cache_Controller.Mem_Data       6824038      0.00%      0.00%
system.ruby.L2Cache_Controller.Mem_Ack        6814221      0.00%      0.00%
system.ruby.L2Cache_Controller.WB_Data          57632      0.00%      0.00%
system.ruby.L2Cache_Controller.WB_Data_clean         8789      0.00%      0.00%
system.ruby.L2Cache_Controller.Ack              91519      0.00%      0.00%
system.ruby.L2Cache_Controller.Ack_all         107851      0.00%      0.00%
system.ruby.L2Cache_Controller.Unblock          18178      0.00%      0.00%
system.ruby.L2Cache_Controller.Exclusive_Unblock     23446582      0.00%      0.00%
system.ruby.L2Cache_Controller.MEM_Inv              4      0.00%      0.00%
system.ruby.L2Cache_Controller.NP.L1_GET_INSTR        79335      0.00%      0.00%
system.ruby.L2Cache_Controller.NP.L1_GETS      3269744      0.00%      0.00%
system.ruby.L2Cache_Controller.NP.L1_GETX      3474959      0.00%      0.00%
system.ruby.L2Cache_Controller.SS.L1_GET_INSTR       203528      0.00%      0.00%
system.ruby.L2Cache_Controller.SS.L1_GETS        30148      0.00%      0.00%
system.ruby.L2Cache_Controller.SS.L1_GETX         1444      0.00%      0.00%
system.ruby.L2Cache_Controller.SS.L1_UPGRADE        10330      0.00%      0.00%
system.ruby.L2Cache_Controller.SS.L2_Replacement         1412      0.00%      0.00%
system.ruby.L2Cache_Controller.SS.L2_Replacement_clean        83157      0.00%      0.00%
system.ruby.L2Cache_Controller.M.L1_GET_INSTR           13      0.00%      0.00%
system.ruby.L2Cache_Controller.M.L1_GETS     10309037      0.00%      0.00%
system.ruby.L2Cache_Controller.M.L1_GETX      6376789      0.00%      0.00%
system.ruby.L2Cache_Controller.M.L2_Replacement      3486022      0.00%      0.00%
system.ruby.L2Cache_Controller.M.L2_Replacement_clean      3172105      0.00%      0.00%
system.ruby.L2Cache_Controller.MT.L1_GETS        18178      0.00%      0.00%
system.ruby.L2Cache_Controller.MT.L1_GETX         4293      0.00%      0.00%
system.ruby.L2Cache_Controller.MT.L1_PUTX     23352589      0.00%      0.00%
system.ruby.L2Cache_Controller.MT.L2_Replacement         5142      0.00%      0.00%
system.ruby.L2Cache_Controller.MT.L2_Replacement_clean        66381      0.00%      0.00%
system.ruby.L2Cache_Controller.MT.MEM_Inv            2      0.00%      0.00%
system.ruby.L2Cache_Controller.M_I.L1_GET_INSTR            3      0.00%      0.00%
system.ruby.L2Cache_Controller.M_I.L1_GETS            4      0.00%      0.00%
system.ruby.L2Cache_Controller.M_I.L1_GETX            2      0.00%      0.00%
system.ruby.L2Cache_Controller.M_I.Mem_Ack      6814221      0.00%      0.00%
system.ruby.L2Cache_Controller.MT_I.WB_Data         4551      0.00%      0.00%
system.ruby.L2Cache_Controller.MT_I.Ack_all          593      0.00%      0.00%
system.ruby.L2Cache_Controller.MT_I.MEM_Inv            2      0.00%      0.00%
system.ruby.L2Cache_Controller.MCT_I.WB_Data        43692      0.00%      0.00%
system.ruby.L2Cache_Controller.MCT_I.Ack_all        22689      0.00%      0.00%
system.ruby.L2Cache_Controller.I_I.L1_GET_INSTR            1      0.00%      0.00%
system.ruby.L2Cache_Controller.I_I.Ack          89697      0.00%      0.00%
system.ruby.L2Cache_Controller.I_I.Ack_all        83157      0.00%      0.00%
system.ruby.L2Cache_Controller.S_I.Ack           1822      0.00%      0.00%
system.ruby.L2Cache_Controller.S_I.Ack_all         1412      0.00%      0.00%
system.ruby.L2Cache_Controller.ISS.L1_GETS           14      0.00%      0.00%
system.ruby.L2Cache_Controller.ISS.Mem_Data      3269730      0.00%      0.00%
system.ruby.L2Cache_Controller.IS.Mem_Data        79349      0.00%      0.00%
system.ruby.L2Cache_Controller.IM.Mem_Data      3474959      0.00%      0.00%
system.ruby.L2Cache_Controller.SS_MB.L1_GETS           61      0.00%      0.00%
system.ruby.L2Cache_Controller.SS_MB.L1_GETX            1      0.00%      0.00%
system.ruby.L2Cache_Controller.SS_MB.L1_UPGRADE            1      0.00%      0.00%
system.ruby.L2Cache_Controller.SS_MB.Exclusive_Unblock        11774      0.00%      0.00%
system.ruby.L2Cache_Controller.MT_MB.L1_GETS          146      0.00%      0.00%
system.ruby.L2Cache_Controller.MT_MB.L1_GETX            1      0.00%      0.00%
system.ruby.L2Cache_Controller.MT_MB.Exclusive_Unblock     23434808      0.00%      0.00%
system.ruby.L2Cache_Controller.MT_IIB.L1_GETS            2      0.00%      0.00%
system.ruby.L2Cache_Controller.MT_IIB.WB_Data         9364      0.00%      0.00%
system.ruby.L2Cache_Controller.MT_IIB.WB_Data_clean         8755      0.00%      0.00%
system.ruby.L2Cache_Controller.MT_IIB.Unblock           59      0.00%      0.00%
system.ruby.L2Cache_Controller.MT_IB.WB_Data           25      0.00%      0.00%
system.ruby.L2Cache_Controller.MT_IB.WB_Data_clean           34      0.00%      0.00%
system.ruby.L2Cache_Controller.MT_SB.Unblock        18119      0.00%      0.00%

---------- End Simulation Statistics   ----------
