
---------- Begin Simulation Statistics ----------
sim_seconds                                  2.409955                       # Number of seconds simulated
sim_ticks                                2409954731500                       # Number of ticks simulated
final_tick                               57355908383001                       # Number of ticks from beginning of simulation (restored from checkpoints and never reset)
sim_freq                                 1000000000000                       # Frequency of simulated ticks
host_inst_rate                                 142725                       # Simulator instruction rate (inst/s)
host_op_rate                                   258718                       # Simulator op (including micro ops) rate (op/s)
host_tick_rate                              261910763                       # Simulator tick rate (ticks/s)
host_mem_usage                                1781048                       # Number of bytes of host memory used
host_seconds                                  9201.43                       # Real time elapsed on the host
sim_insts                                  1313272378                       # Number of instructions simulated
sim_ops                                    2380578031                       # Number of ops (including micro ops) simulated
system.voltage_domain.voltage                       1                       # Voltage in Volts
system.clk_domain.clock                          1000                       # Clock period in ticks
system.mem_ctrls.bytes_read::ruby.dir_cntrl0    127193216                       # Number of bytes read from this memory
system.mem_ctrls.bytes_read::total          127193216                       # Number of bytes read from this memory
system.mem_ctrls.bytes_written::ruby.dir_cntrl0     77485696                       # Number of bytes written to this memory
system.mem_ctrls.bytes_written::total        77485696                       # Number of bytes written to this memory
system.mem_ctrls.num_reads::ruby.dir_cntrl0       993697                       # Number of read requests responded to by this memory
system.mem_ctrls.num_reads::total              993697                       # Number of read requests responded to by this memory
system.mem_ctrls.num_writes::ruby.dir_cntrl0       605357                       # Number of write requests responded to by this memory
system.mem_ctrls.num_writes::total             605357                       # Number of write requests responded to by this memory
system.mem_ctrls.bw_read::ruby.dir_cntrl0     52778259                       # Total read bandwidth from this memory (bytes/s)
system.mem_ctrls.bw_read::total              52778259                       # Total read bandwidth from this memory (bytes/s)
system.mem_ctrls.bw_write::ruby.dir_cntrl0     32152345                       # Write bandwidth from this memory (bytes/s)
system.mem_ctrls.bw_write::total             32152345                       # Write bandwidth from this memory (bytes/s)
system.mem_ctrls.bw_total::ruby.dir_cntrl0     84930604                       # Total bandwidth to/from this memory (bytes/s)
system.mem_ctrls.bw_total::total             84930604                       # Total bandwidth to/from this memory (bytes/s)
system.mem_ctrls.readReqs                      993697                       # Number of read requests accepted
system.mem_ctrls.writeReqs                     605357                       # Number of write requests accepted
system.mem_ctrls.readBursts                   1987394                       # Number of DRAM read bursts, including those serviced by the write queue
system.mem_ctrls.writeBursts                  1210714                       # Number of DRAM write bursts, including those merged in the write queue
system.mem_ctrls.bytesReadDRAM              127148736                       # Total number of bytes read from DRAM
system.mem_ctrls.bytesReadWrQ                   44480                       # Total number of bytes read from write queue
system.mem_ctrls.bytesWritten                77481856                       # Total number of bytes written to DRAM
system.mem_ctrls.bytesReadSys               127193216                       # Total read bytes from the system interface side
system.mem_ctrls.bytesWrittenSys             77485696                       # Total written bytes from the system interface side
system.mem_ctrls.servicedByWrQ                    695                       # Number of DRAM read bursts serviced by the write queue
system.mem_ctrls.mergedWrBursts                    52                       # Number of DRAM write bursts merged with an existing one
system.mem_ctrls.neitherReadNorWriteReqs            0                       # Number of requests that are neither read nor write
system.mem_ctrls.perBankRdBursts::0            126674                       # Per bank write bursts
system.mem_ctrls.perBankRdBursts::1            124841                       # Per bank write bursts
system.mem_ctrls.perBankRdBursts::2            121818                       # Per bank write bursts
system.mem_ctrls.perBankRdBursts::3            123750                       # Per bank write bursts
system.mem_ctrls.perBankRdBursts::4            123694                       # Per bank write bursts
system.mem_ctrls.perBankRdBursts::5            126061                       # Per bank write bursts
system.mem_ctrls.perBankRdBursts::6            129903                       # Per bank write bursts
system.mem_ctrls.perBankRdBursts::7            123118                       # Per bank write bursts
system.mem_ctrls.perBankRdBursts::8            124815                       # Per bank write bursts
system.mem_ctrls.perBankRdBursts::9            125304                       # Per bank write bursts
system.mem_ctrls.perBankRdBursts::10           119946                       # Per bank write bursts
system.mem_ctrls.perBankRdBursts::11           121362                       # Per bank write bursts
system.mem_ctrls.perBankRdBursts::12           121965                       # Per bank write bursts
system.mem_ctrls.perBankRdBursts::13           122558                       # Per bank write bursts
system.mem_ctrls.perBankRdBursts::14           124406                       # Per bank write bursts
system.mem_ctrls.perBankRdBursts::15           126484                       # Per bank write bursts
system.mem_ctrls.perBankWrBursts::0             75309                       # Per bank write bursts
system.mem_ctrls.perBankWrBursts::1             77592                       # Per bank write bursts
system.mem_ctrls.perBankWrBursts::2             75414                       # Per bank write bursts
system.mem_ctrls.perBankWrBursts::3             74860                       # Per bank write bursts
system.mem_ctrls.perBankWrBursts::4             75331                       # Per bank write bursts
system.mem_ctrls.perBankWrBursts::5             77104                       # Per bank write bursts
system.mem_ctrls.perBankWrBursts::6             77796                       # Per bank write bursts
system.mem_ctrls.perBankWrBursts::7             76302                       # Per bank write bursts
system.mem_ctrls.perBankWrBursts::8             77376                       # Per bank write bursts
system.mem_ctrls.perBankWrBursts::9             75286                       # Per bank write bursts
system.mem_ctrls.perBankWrBursts::10            74052                       # Per bank write bursts
system.mem_ctrls.perBankWrBursts::11            74510                       # Per bank write bursts
system.mem_ctrls.perBankWrBursts::12            74190                       # Per bank write bursts
system.mem_ctrls.perBankWrBursts::13            74892                       # Per bank write bursts
system.mem_ctrls.perBankWrBursts::14            75226                       # Per bank write bursts
system.mem_ctrls.perBankWrBursts::15            75414                       # Per bank write bursts
system.mem_ctrls.numRdRetry                         0                       # Number of times read queue was full causing retry
system.mem_ctrls.numWrRetry                         0                       # Number of times write queue was full causing retry
system.mem_ctrls.totGap                  2409954688500                       # Total gap between requests
system.mem_ctrls.readPktSize::0                     0                       # Read request sizes (log2)
system.mem_ctrls.readPktSize::1                     0                       # Read request sizes (log2)
system.mem_ctrls.readPktSize::2                     0                       # Read request sizes (log2)
system.mem_ctrls.readPktSize::3                     0                       # Read request sizes (log2)
system.mem_ctrls.readPktSize::4                     0                       # Read request sizes (log2)
system.mem_ctrls.readPktSize::5                     0                       # Read request sizes (log2)
system.mem_ctrls.readPktSize::6               1987394                       # Read request sizes (log2)
system.mem_ctrls.writePktSize::0                    0                       # Write request sizes (log2)
system.mem_ctrls.writePktSize::1                    0                       # Write request sizes (log2)
system.mem_ctrls.writePktSize::2                    0                       # Write request sizes (log2)
system.mem_ctrls.writePktSize::3                    0                       # Write request sizes (log2)
system.mem_ctrls.writePktSize::4                    0                       # Write request sizes (log2)
system.mem_ctrls.writePktSize::5                    0                       # Write request sizes (log2)
system.mem_ctrls.writePktSize::6              1210714                       # Write request sizes (log2)
system.mem_ctrls.rdQLenPdf::0                  989785                       # What read queue length does an incoming req see
system.mem_ctrls.rdQLenPdf::1                  990178                       # What read queue length does an incoming req see
system.mem_ctrls.rdQLenPdf::2                    3570                       # What read queue length does an incoming req see
system.mem_ctrls.rdQLenPdf::3                    3164                       # What read queue length does an incoming req see
system.mem_ctrls.rdQLenPdf::4                       1                       # What read queue length does an incoming req see
system.mem_ctrls.rdQLenPdf::5                       1                       # What read queue length does an incoming req see
system.mem_ctrls.rdQLenPdf::6                       0                       # What read queue length does an incoming req see
system.mem_ctrls.rdQLenPdf::7                       0                       # What read queue length does an incoming req see
system.mem_ctrls.rdQLenPdf::8                       0                       # What read queue length does an incoming req see
system.mem_ctrls.rdQLenPdf::9                       0                       # What read queue length does an incoming req see
system.mem_ctrls.rdQLenPdf::10                      0                       # What read queue length does an incoming req see
system.mem_ctrls.rdQLenPdf::11                      0                       # What read queue length does an incoming req see
system.mem_ctrls.rdQLenPdf::12                      0                       # What read queue length does an incoming req see
system.mem_ctrls.rdQLenPdf::13                      0                       # What read queue length does an incoming req see
system.mem_ctrls.rdQLenPdf::14                      0                       # What read queue length does an incoming req see
system.mem_ctrls.rdQLenPdf::15                      0                       # What read queue length does an incoming req see
system.mem_ctrls.rdQLenPdf::16                      0                       # What read queue length does an incoming req see
system.mem_ctrls.rdQLenPdf::17                      0                       # What read queue length does an incoming req see
system.mem_ctrls.rdQLenPdf::18                      0                       # What read queue length does an incoming req see
system.mem_ctrls.rdQLenPdf::19                      0                       # What read queue length does an incoming req see
system.mem_ctrls.rdQLenPdf::20                      0                       # What read queue length does an incoming req see
system.mem_ctrls.rdQLenPdf::21                      0                       # What read queue length does an incoming req see
system.mem_ctrls.rdQLenPdf::22                      0                       # What read queue length does an incoming req see
system.mem_ctrls.rdQLenPdf::23                      0                       # What read queue length does an incoming req see
system.mem_ctrls.rdQLenPdf::24                      0                       # What read queue length does an incoming req see
system.mem_ctrls.rdQLenPdf::25                      0                       # What read queue length does an incoming req see
system.mem_ctrls.rdQLenPdf::26                      0                       # What read queue length does an incoming req see
system.mem_ctrls.rdQLenPdf::27                      0                       # What read queue length does an incoming req see
system.mem_ctrls.rdQLenPdf::28                      0                       # What read queue length does an incoming req see
system.mem_ctrls.rdQLenPdf::29                      0                       # What read queue length does an incoming req see
system.mem_ctrls.rdQLenPdf::30                      0                       # What read queue length does an incoming req see
system.mem_ctrls.rdQLenPdf::31                      0                       # What read queue length does an incoming req see
system.mem_ctrls.wrQLenPdf::0                       0                       # What write queue length does an incoming req see
system.mem_ctrls.wrQLenPdf::1                       0                       # What write queue length does an incoming req see
system.mem_ctrls.wrQLenPdf::2                       0                       # What write queue length does an incoming req see
system.mem_ctrls.wrQLenPdf::3                       0                       # What write queue length does an incoming req see
system.mem_ctrls.wrQLenPdf::4                       0                       # What write queue length does an incoming req see
system.mem_ctrls.wrQLenPdf::5                       0                       # What write queue length does an incoming req see
system.mem_ctrls.wrQLenPdf::6                       0                       # What write queue length does an incoming req see
system.mem_ctrls.wrQLenPdf::7                       0                       # What write queue length does an incoming req see
system.mem_ctrls.wrQLenPdf::8                       0                       # What write queue length does an incoming req see
system.mem_ctrls.wrQLenPdf::9                       0                       # What write queue length does an incoming req see
system.mem_ctrls.wrQLenPdf::10                      0                       # What write queue length does an incoming req see
system.mem_ctrls.wrQLenPdf::11                      0                       # What write queue length does an incoming req see
system.mem_ctrls.wrQLenPdf::12                      0                       # What write queue length does an incoming req see
system.mem_ctrls.wrQLenPdf::13                      0                       # What write queue length does an incoming req see
system.mem_ctrls.wrQLenPdf::14                      0                       # What write queue length does an incoming req see
system.mem_ctrls.wrQLenPdf::15                   1634                       # What write queue length does an incoming req see
system.mem_ctrls.wrQLenPdf::16                   1772                       # What write queue length does an incoming req see
system.mem_ctrls.wrQLenPdf::17                  67706                       # What write queue length does an incoming req see
system.mem_ctrls.wrQLenPdf::18                  74883                       # What write queue length does an incoming req see
system.mem_ctrls.wrQLenPdf::19                  75505                       # What write queue length does an incoming req see
system.mem_ctrls.wrQLenPdf::20                  75583                       # What write queue length does an incoming req see
system.mem_ctrls.wrQLenPdf::21                  75598                       # What write queue length does an incoming req see
system.mem_ctrls.wrQLenPdf::22                  75596                       # What write queue length does an incoming req see
system.mem_ctrls.wrQLenPdf::23                  75565                       # What write queue length does an incoming req see
system.mem_ctrls.wrQLenPdf::24                  75543                       # What write queue length does an incoming req see
system.mem_ctrls.wrQLenPdf::25                  75517                       # What write queue length does an incoming req see
system.mem_ctrls.wrQLenPdf::26                  75522                       # What write queue length does an incoming req see
system.mem_ctrls.wrQLenPdf::27                  75508                       # What write queue length does an incoming req see
system.mem_ctrls.wrQLenPdf::28                  75497                       # What write queue length does an incoming req see
system.mem_ctrls.wrQLenPdf::29                  75480                       # What write queue length does an incoming req see
system.mem_ctrls.wrQLenPdf::30                  75466                       # What write queue length does an incoming req see
system.mem_ctrls.wrQLenPdf::31                  75451                       # What write queue length does an incoming req see
system.mem_ctrls.wrQLenPdf::32                  75444                       # What write queue length does an incoming req see
system.mem_ctrls.wrQLenPdf::33                   7351                       # What write queue length does an incoming req see
system.mem_ctrls.wrQLenPdf::34                      9                       # What write queue length does an incoming req see
system.mem_ctrls.wrQLenPdf::35                      1                       # What write queue length does an incoming req see
system.mem_ctrls.wrQLenPdf::36                      1                       # What write queue length does an incoming req see
system.mem_ctrls.wrQLenPdf::37                      2                       # What write queue length does an incoming req see
system.mem_ctrls.wrQLenPdf::38                      2                       # What write queue length does an incoming req see
system.mem_ctrls.wrQLenPdf::39                      1                       # What write queue length does an incoming req see
system.mem_ctrls.wrQLenPdf::40                      2                       # What write queue length does an incoming req see
system.mem_ctrls.wrQLenPdf::41                      3                       # What write queue length does an incoming req see
system.mem_ctrls.wrQLenPdf::42                      3                       # What write queue length does an incoming req see
system.mem_ctrls.wrQLenPdf::43                      4                       # What write queue length does an incoming req see
system.mem_ctrls.wrQLenPdf::44                      4                       # What write queue length does an incoming req see
system.mem_ctrls.wrQLenPdf::45                      3                       # What write queue length does an incoming req see
system.mem_ctrls.wrQLenPdf::46                      3                       # What write queue length does an incoming req see
system.mem_ctrls.wrQLenPdf::47                      2                       # What write queue length does an incoming req see
system.mem_ctrls.wrQLenPdf::48                      1                       # What write queue length does an incoming req see
system.mem_ctrls.wrQLenPdf::49                      0                       # What write queue length does an incoming req see
system.mem_ctrls.wrQLenPdf::50                      0                       # What write queue length does an incoming req see
system.mem_ctrls.wrQLenPdf::51                      0                       # What write queue length does an incoming req see
system.mem_ctrls.wrQLenPdf::52                      0                       # What write queue length does an incoming req see
system.mem_ctrls.wrQLenPdf::53                      0                       # What write queue length does an incoming req see
system.mem_ctrls.wrQLenPdf::54                      0                       # What write queue length does an incoming req see
system.mem_ctrls.wrQLenPdf::55                      0                       # What write queue length does an incoming req see
system.mem_ctrls.wrQLenPdf::56                      0                       # What write queue length does an incoming req see
system.mem_ctrls.wrQLenPdf::57                      0                       # What write queue length does an incoming req see
system.mem_ctrls.wrQLenPdf::58                      0                       # What write queue length does an incoming req see
system.mem_ctrls.wrQLenPdf::59                      0                       # What write queue length does an incoming req see
system.mem_ctrls.wrQLenPdf::60                      0                       # What write queue length does an incoming req see
system.mem_ctrls.wrQLenPdf::61                      0                       # What write queue length does an incoming req see
system.mem_ctrls.wrQLenPdf::62                      0                       # What write queue length does an incoming req see
system.mem_ctrls.wrQLenPdf::63                      0                       # What write queue length does an incoming req see
system.mem_ctrls.bytesPerActivate::samples       730418                       # Bytes accessed per row activation
system.mem_ctrls.bytesPerActivate::mean    280.155462                       # Bytes accessed per row activation
system.mem_ctrls.bytesPerActivate::gmean   213.527494                       # Bytes accessed per row activation
system.mem_ctrls.bytesPerActivate::stdev   227.771001                       # Bytes accessed per row activation
system.mem_ctrls.bytesPerActivate::0-127        47815      6.55%      6.55% # Bytes accessed per row activation
system.mem_ctrls.bytesPerActivate::128-255       345594     47.31%     53.86% # Bytes accessed per row activation
system.mem_ctrls.bytesPerActivate::256-383       122336     16.75%     70.61% # Bytes accessed per row activation
system.mem_ctrls.bytesPerActivate::384-511        67033      9.18%     79.79% # Bytes accessed per row activation
system.mem_ctrls.bytesPerActivate::512-639        67378      9.22%     89.01% # Bytes accessed per row activation
system.mem_ctrls.bytesPerActivate::640-767        39799      5.45%     94.46% # Bytes accessed per row activation
system.mem_ctrls.bytesPerActivate::768-895         9741      1.33%     95.79% # Bytes accessed per row activation
system.mem_ctrls.bytesPerActivate::896-1023         6344      0.87%     96.66% # Bytes accessed per row activation
system.mem_ctrls.bytesPerActivate::1024-1151        24378      3.34%    100.00% # Bytes accessed per row activation
system.mem_ctrls.bytesPerActivate::total       730418                       # Bytes accessed per row activation
system.mem_ctrls.rdPerTurnAround::samples        75429                       # Reads before turning the bus around for writes
system.mem_ctrls.rdPerTurnAround::mean      26.338451                       # Reads before turning the bus around for writes
system.mem_ctrls.rdPerTurnAround::stdev     43.164794                       # Reads before turning the bus around for writes
system.mem_ctrls.rdPerTurnAround::0-255         75225     99.73%     99.73% # Reads before turning the bus around for writes
system.mem_ctrls.rdPerTurnAround::256-511          175      0.23%     99.96% # Reads before turning the bus around for writes
system.mem_ctrls.rdPerTurnAround::512-767           23      0.03%     99.99% # Reads before turning the bus around for writes
system.mem_ctrls.rdPerTurnAround::768-1023            1      0.00%     99.99% # Reads before turning the bus around for writes
system.mem_ctrls.rdPerTurnAround::2816-3071            1      0.00%     99.99% # Reads before turning the bus around for writes
system.mem_ctrls.rdPerTurnAround::3328-3583            1      0.00%    100.00% # Reads before turning the bus around for writes
system.mem_ctrls.rdPerTurnAround::3584-3839            1      0.00%    100.00% # Reads before turning the bus around for writes
system.mem_ctrls.rdPerTurnAround::5120-5375            1      0.00%    100.00% # Reads before turning the bus around for writes
system.mem_ctrls.rdPerTurnAround::5376-5631            1      0.00%    100.00% # Reads before turning the bus around for writes
system.mem_ctrls.rdPerTurnAround::total         75429                       # Reads before turning the bus around for writes
system.mem_ctrls.wrPerTurnAround::samples        75429                       # Writes before turning the bus around for reads
system.mem_ctrls.wrPerTurnAround::mean      16.050246                       # Writes before turning the bus around for reads
system.mem_ctrls.wrPerTurnAround::gmean     16.046949                       # Writes before turning the bus around for reads
system.mem_ctrls.wrPerTurnAround::stdev      0.349690                       # Writes before turning the bus around for reads
system.mem_ctrls.wrPerTurnAround::16            73618     97.60%     97.60% # Writes before turning the bus around for reads
system.mem_ctrls.wrPerTurnAround::17               78      0.10%     97.70% # Writes before turning the bus around for reads
system.mem_ctrls.wrPerTurnAround::18             1575      2.09%     99.79% # Writes before turning the bus around for reads
system.mem_ctrls.wrPerTurnAround::19              142      0.19%     99.98% # Writes before turning the bus around for reads
system.mem_ctrls.wrPerTurnAround::20                9      0.01%     99.99% # Writes before turning the bus around for reads
system.mem_ctrls.wrPerTurnAround::22                1      0.00%     99.99% # Writes before turning the bus around for reads
system.mem_ctrls.wrPerTurnAround::26                1      0.00%     99.99% # Writes before turning the bus around for reads
system.mem_ctrls.wrPerTurnAround::28                1      0.00%     99.99% # Writes before turning the bus around for reads
system.mem_ctrls.wrPerTurnAround::29                1      0.00%    100.00% # Writes before turning the bus around for reads
system.mem_ctrls.wrPerTurnAround::34                1      0.00%    100.00% # Writes before turning the bus around for reads
system.mem_ctrls.wrPerTurnAround::36                1      0.00%    100.00% # Writes before turning the bus around for reads
system.mem_ctrls.wrPerTurnAround::37                1      0.00%    100.00% # Writes before turning the bus around for reads
system.mem_ctrls.wrPerTurnAround::total         75429                       # Writes before turning the bus around for reads
system.mem_ctrls.totQLat                  43736146466                       # Total ticks spent queuing
system.mem_ctrls.totMemAccLat             80986752716                       # Total ticks spent from burst creation until serviced by the DRAM
system.mem_ctrls.totBusLat                 9933495000                       # Total ticks spent in databus transfers
system.mem_ctrls.avgQLat                     22014.48                       # Average queueing delay per DRAM burst
system.mem_ctrls.avgBusLat                    5000.00                       # Average bus latency per DRAM burst
system.mem_ctrls.avgMemAccLat                40764.48                       # Average memory access latency per DRAM burst
system.mem_ctrls.avgRdBW                        52.76                       # Average DRAM read bandwidth in MiByte/s
system.mem_ctrls.avgWrBW                        32.15                       # Average achieved write bandwidth in MiByte/s
system.mem_ctrls.avgRdBWSys                     52.78                       # Average system read bandwidth in MiByte/s
system.mem_ctrls.avgWrBWSys                     32.15                       # Average system write bandwidth in MiByte/s
system.mem_ctrls.peakBW                      12800.00                       # Theoretical peak bandwidth in MiByte/s
system.mem_ctrls.busUtil                         0.66                       # Data bus utilization in percentage
system.mem_ctrls.busUtilRead                     0.41                       # Data bus utilization in percentage for reads
system.mem_ctrls.busUtilWrite                    0.25                       # Data bus utilization in percentage for writes
system.mem_ctrls.avgRdQLen                       2.00                       # Average read queue length when enqueuing
system.mem_ctrls.avgWrQLen                      26.03                       # Average write queue length when enqueuing
system.mem_ctrls.readRowHits                  1647733                       # Number of row buffer hits during reads
system.mem_ctrls.writeRowHits                  819203                       # Number of row buffer hits during writes
system.mem_ctrls.readRowHitRate                 82.94                       # Row buffer hit rate for reads
system.mem_ctrls.writeRowHitRate                67.67                       # Row buffer hit rate for writes
system.mem_ctrls.avgGap                    1507112.76                       # Average gap between requests
system.mem_ctrls.pageHitRate                    77.16                       # Row buffer hit rate, read and write combined
system.mem_ctrls_0.actEnergy               2833291440                       # Energy for activate commands per rank (pJ)
system.mem_ctrls_0.preEnergy               1545942750                       # Energy for precharge commands per rank (pJ)
system.mem_ctrls_0.readEnergy              7972426800                       # Energy for read commands per rank (pJ)
system.mem_ctrls_0.writeEnergy             3982510800                       # Energy for write commands per rank (pJ)
system.mem_ctrls_0.refreshEnergy         158116389600                       # Energy for refresh commands per rank (pJ)
system.mem_ctrls_0.actBackEnergy         288593885340                       # Energy for active background per rank (pJ)
system.mem_ctrls_0.preBackEnergy         1199341417500                       # Energy for precharge background per rank (pJ)
system.mem_ctrls_0.totalEnergy           1662385864230                       # Total energy per rank (pJ)
system.mem_ctrls_0.averagePower            686.702702                       # Core power per rank (mW)
system.mem_ctrls_0.memoryStateTime::IDLE 1988360528500                       # Time in different power states
system.mem_ctrls_0.memoryStateTime::REF   80473640000                       # Time in different power states
system.mem_ctrls_0.memoryStateTime::PRE_PDN            0                       # Time in different power states
system.mem_ctrls_0.memoryStateTime::ACT  341120749000                       # Time in different power states
system.mem_ctrls_0.memoryStateTime::ACT_PDN            0                       # Time in different power states
system.mem_ctrls_1.actEnergy               2757918240                       # Energy for activate commands per rank (pJ)
system.mem_ctrls_1.preEnergy               1504816500                       # Energy for precharge commands per rank (pJ)
system.mem_ctrls_1.readEnergy              7854194400                       # Energy for read commands per rank (pJ)
system.mem_ctrls_1.writeEnergy             3915864000                       # Energy for write commands per rank (pJ)
system.mem_ctrls_1.refreshEnergy         158116389600                       # Energy for refresh commands per rank (pJ)
system.mem_ctrls_1.actBackEnergy         287718825330                       # Energy for active background per rank (pJ)
system.mem_ctrls_1.preBackEnergy         1200109014000                       # Energy for precharge background per rank (pJ)
system.mem_ctrls_1.totalEnergy           1661977022070                       # Total energy per rank (pJ)
system.mem_ctrls_1.averagePower            686.533816                       # Core power per rank (mW)
system.mem_ctrls_1.memoryStateTime::IDLE 1988722779750                       # Time in different power states
system.mem_ctrls_1.memoryStateTime::REF   80473640000                       # Time in different power states
system.mem_ctrls_1.memoryStateTime::PRE_PDN            0                       # Time in different power states
system.mem_ctrls_1.memoryStateTime::ACT  340756962750                       # Time in different power states
system.mem_ctrls_1.memoryStateTime::ACT_PDN            0                       # Time in different power states
system.cpu_voltage_domain.voltage                   1                       # Voltage in Volts
system.cpu_clk_domain.clock                       500                       # Clock period in ticks
system.cpu0.apic_clk_domain.clock                8000                       # Clock period in ticks
system.cpu0.numCycles                      4821962171                       # number of cpu cycles simulated
system.cpu0.numWorkItemsStarted                     0                       # number of work items this cpu started
system.cpu0.numWorkItemsCompleted                   0                       # number of work items this cpu completed
system.cpu0.kern.inst.arm                           0                       # number of arm instructions executed
system.cpu0.kern.inst.quiesce                       0                       # number of quiesce instructions executed
system.cpu0.committedInsts                    3989966                       # Number of instructions committed
system.cpu0.committedOps                      8248046                       # Number of ops (including micro ops) committed
system.cpu0.num_int_alu_accesses              8023060                       # Number of integer alu accesses
system.cpu0.num_fp_alu_accesses                   372                       # Number of float alu accesses
system.cpu0.num_func_calls                     193304                       # number of times a function call or return occured
system.cpu0.num_conditional_control_insts       635431                       # number of instructions that are conditional controls
system.cpu0.num_int_insts                     8023060                       # number of integer instructions
system.cpu0.num_fp_insts                          372                       # number of float instructions
system.cpu0.num_int_register_reads           15677555                       # number of times the integer registers were read
system.cpu0.num_int_register_writes           6609866                       # number of times the integer registers were written
system.cpu0.num_fp_register_reads                 596                       # number of times the floating registers were read
system.cpu0.num_fp_register_writes                261                       # number of times the floating registers were written
system.cpu0.num_cc_register_reads             4932428                       # number of times the CC registers were read
system.cpu0.num_cc_register_writes            3034391                       # number of times the CC registers were written
system.cpu0.num_mem_refs                      1694457                       # number of memory refs
system.cpu0.num_load_insts                    1048056                       # Number of load instructions
system.cpu0.num_store_insts                    646401                       # Number of store instructions
system.cpu0.num_idle_cycles              4801725794.395927                       # Number of idle cycles
system.cpu0.num_busy_cycles              20236376.604072                       # Number of busy cycles
system.cpu0.not_idle_fraction                0.004197                       # Percentage of non-idle cycles
system.cpu0.idle_fraction                    0.995803                       # Percentage of idle cycles
system.cpu0.Branches                           894542                       # Number of branches fetched
system.cpu0.op_class::No_OpClass                82997      1.01%      1.01% # Class of executed instruction
system.cpu0.op_class::IntAlu                  6434420     78.01%     79.02% # Class of executed instruction
system.cpu0.op_class::IntMult                    9560      0.12%     79.13% # Class of executed instruction
system.cpu0.op_class::IntDiv                    26455      0.32%     79.45% # Class of executed instruction
system.cpu0.op_class::FloatAdd                    244      0.00%     79.46% # Class of executed instruction
system.cpu0.op_class::FloatCmp                      0      0.00%     79.46% # Class of executed instruction
system.cpu0.op_class::FloatCvt                      0      0.00%     79.46% # Class of executed instruction
system.cpu0.op_class::FloatMult                     0      0.00%     79.46% # Class of executed instruction
system.cpu0.op_class::FloatDiv                      0      0.00%     79.46% # Class of executed instruction
system.cpu0.op_class::FloatSqrt                     0      0.00%     79.46% # Class of executed instruction
system.cpu0.op_class::SimdAdd                       0      0.00%     79.46% # Class of executed instruction
system.cpu0.op_class::SimdAddAcc                    0      0.00%     79.46% # Class of executed instruction
system.cpu0.op_class::SimdAlu                       0      0.00%     79.46% # Class of executed instruction
system.cpu0.op_class::SimdCmp                       0      0.00%     79.46% # Class of executed instruction
system.cpu0.op_class::SimdCvt                       0      0.00%     79.46% # Class of executed instruction
system.cpu0.op_class::SimdMisc                      0      0.00%     79.46% # Class of executed instruction
system.cpu0.op_class::SimdMult                      0      0.00%     79.46% # Class of executed instruction
system.cpu0.op_class::SimdMultAcc                   0      0.00%     79.46% # Class of executed instruction
system.cpu0.op_class::SimdShift                     0      0.00%     79.46% # Class of executed instruction
system.cpu0.op_class::SimdShiftAcc                  0      0.00%     79.46% # Class of executed instruction
system.cpu0.op_class::SimdSqrt                      0      0.00%     79.46% # Class of executed instruction
system.cpu0.op_class::SimdFloatAdd                  0      0.00%     79.46% # Class of executed instruction
system.cpu0.op_class::SimdFloatAlu                  0      0.00%     79.46% # Class of executed instruction
system.cpu0.op_class::SimdFloatCmp                  0      0.00%     79.46% # Class of executed instruction
system.cpu0.op_class::SimdFloatCvt                  0      0.00%     79.46% # Class of executed instruction
system.cpu0.op_class::SimdFloatDiv                  0      0.00%     79.46% # Class of executed instruction
system.cpu0.op_class::SimdFloatMisc                 0      0.00%     79.46% # Class of executed instruction
system.cpu0.op_class::SimdFloatMult                 0      0.00%     79.46% # Class of executed instruction
system.cpu0.op_class::SimdFloatMultAcc              0      0.00%     79.46% # Class of executed instruction
system.cpu0.op_class::SimdFloatSqrt                 0      0.00%     79.46% # Class of executed instruction
system.cpu0.op_class::MemRead                 1048056     12.71%     92.16% # Class of executed instruction
system.cpu0.op_class::MemWrite                 646401      7.84%    100.00% # Class of executed instruction
system.cpu0.op_class::IprAccess                     0      0.00%    100.00% # Class of executed instruction
system.cpu0.op_class::InstPrefetch                  0      0.00%    100.00% # Class of executed instruction
system.cpu0.op_class::total                   8248133                       # Class of executed instruction
system.cpu1.apic_clk_domain.clock                8000                       # Clock period in ticks
system.cpu1.numCycles                      4816925287                       # number of cpu cycles simulated
system.cpu1.numWorkItemsStarted                     0                       # number of work items this cpu started
system.cpu1.numWorkItemsCompleted                   0                       # number of work items this cpu completed
system.cpu1.kern.inst.arm                           0                       # number of arm instructions executed
system.cpu1.kern.inst.quiesce                       0                       # number of quiesce instructions executed
system.cpu1.committedInsts                 1297751533                       # Number of instructions committed
system.cpu1.committedOps                   2349228523                       # Number of ops (including micro ops) committed
system.cpu1.num_int_alu_accesses           1507257361                       # Number of integer alu accesses
system.cpu1.num_fp_alu_accesses            1130291212                       # Number of float alu accesses
system.cpu1.num_func_calls                     804603                       # number of times a function call or return occured
system.cpu1.num_conditional_control_insts    160946596                       # number of instructions that are conditional controls
system.cpu1.num_int_insts                  1507257361                       # number of integer instructions
system.cpu1.num_fp_insts                   1130291212                       # number of float instructions
system.cpu1.num_int_register_reads         2941123050                       # number of times the integer registers were read
system.cpu1.num_int_register_writes        1034228157                       # number of times the integer registers were written
system.cpu1.num_fp_register_reads          1382488135                       # number of times the floating registers were read
system.cpu1.num_fp_register_writes         1075402015                       # number of times the floating registers were written
system.cpu1.num_cc_register_reads           939450320                       # number of times the CC registers were read
system.cpu1.num_cc_register_writes          528267211                       # number of times the CC registers were written
system.cpu1.num_mem_refs                    388415755                       # number of memory refs
system.cpu1.num_load_insts                  350008028                       # Number of load instructions
system.cpu1.num_store_insts                  38407727                       # Number of store instructions
system.cpu1.num_idle_cycles              22185849.450119                       # Number of idle cycles
system.cpu1.num_busy_cycles              4794739437.549881                       # Number of busy cycles
system.cpu1.not_idle_fraction                0.995394                       # Percentage of non-idle cycles
system.cpu1.idle_fraction                    0.004606                       # Percentage of idle cycles
system.cpu1.Branches                        166344009                       # Number of branches fetched
system.cpu1.op_class::No_OpClass              3904479      0.17%      0.17% # Class of executed instruction
system.cpu1.op_class::IntAlu               1229216526     52.32%     52.49% # Class of executed instruction
system.cpu1.op_class::IntMult                 4269024      0.18%     52.67% # Class of executed instruction
system.cpu1.op_class::IntDiv                      959      0.00%     52.67% # Class of executed instruction
system.cpu1.op_class::FloatAdd              723438108     30.79%     83.47% # Class of executed instruction
system.cpu1.op_class::FloatCmp                      0      0.00%     83.47% # Class of executed instruction
system.cpu1.op_class::FloatCvt                      0      0.00%     83.47% # Class of executed instruction
system.cpu1.op_class::FloatMult                     0      0.00%     83.47% # Class of executed instruction
system.cpu1.op_class::FloatDiv                      0      0.00%     83.47% # Class of executed instruction
system.cpu1.op_class::FloatSqrt                     0      0.00%     83.47% # Class of executed instruction
system.cpu1.op_class::SimdAdd                       0      0.00%     83.47% # Class of executed instruction
system.cpu1.op_class::SimdAddAcc                    0      0.00%     83.47% # Class of executed instruction
system.cpu1.op_class::SimdAlu                       0      0.00%     83.47% # Class of executed instruction
system.cpu1.op_class::SimdCmp                       0      0.00%     83.47% # Class of executed instruction
system.cpu1.op_class::SimdCvt                       0      0.00%     83.47% # Class of executed instruction
system.cpu1.op_class::SimdMisc                      0      0.00%     83.47% # Class of executed instruction
system.cpu1.op_class::SimdMult                      0      0.00%     83.47% # Class of executed instruction
system.cpu1.op_class::SimdMultAcc                   0      0.00%     83.47% # Class of executed instruction
system.cpu1.op_class::SimdShift                     0      0.00%     83.47% # Class of executed instruction
system.cpu1.op_class::SimdShiftAcc                  0      0.00%     83.47% # Class of executed instruction
system.cpu1.op_class::SimdSqrt                      0      0.00%     83.47% # Class of executed instruction
system.cpu1.op_class::SimdFloatAdd                  0      0.00%     83.47% # Class of executed instruction
system.cpu1.op_class::SimdFloatAlu                  0      0.00%     83.47% # Class of executed instruction
system.cpu1.op_class::SimdFloatCmp                  0      0.00%     83.47% # Class of executed instruction
system.cpu1.op_class::SimdFloatCvt                  0      0.00%     83.47% # Class of executed instruction
system.cpu1.op_class::SimdFloatDiv                  0      0.00%     83.47% # Class of executed instruction
system.cpu1.op_class::SimdFloatMisc                 0      0.00%     83.47% # Class of executed instruction
system.cpu1.op_class::SimdFloatMult                 0      0.00%     83.47% # Class of executed instruction
system.cpu1.op_class::SimdFloatMultAcc              0      0.00%     83.47% # Class of executed instruction
system.cpu1.op_class::SimdFloatSqrt                 0      0.00%     83.47% # Class of executed instruction
system.cpu1.op_class::MemRead               350008028     14.90%     98.37% # Class of executed instruction
system.cpu1.op_class::MemWrite               38407727      1.63%    100.00% # Class of executed instruction
system.cpu1.op_class::IprAccess                     0      0.00%    100.00% # Class of executed instruction
system.cpu1.op_class::InstPrefetch                  0      0.00%    100.00% # Class of executed instruction
system.cpu1.op_class::total                2349244851                       # Class of executed instruction
system.cpu2.apic_clk_domain.clock                8000                       # Clock period in ticks
system.cpu2.numCycles                      4818917664                       # number of cpu cycles simulated
system.cpu2.numWorkItemsStarted                     0                       # number of work items this cpu started
system.cpu2.numWorkItemsCompleted                   0                       # number of work items this cpu completed
system.cpu2.kern.inst.arm                           0                       # number of arm instructions executed
system.cpu2.kern.inst.quiesce                       0                       # number of quiesce instructions executed
system.cpu2.committedInsts                    4772384                       # Number of instructions committed
system.cpu2.committedOps                      9599295                       # Number of ops (including micro ops) committed
system.cpu2.num_int_alu_accesses              9426998                       # Number of integer alu accesses
system.cpu2.num_fp_alu_accesses                  1778                       # Number of float alu accesses
system.cpu2.num_func_calls                     248234                       # number of times a function call or return occured
system.cpu2.num_conditional_control_insts       823384                       # number of instructions that are conditional controls
system.cpu2.num_int_insts                     9426998                       # number of integer instructions
system.cpu2.num_fp_insts                         1778                       # number of float instructions
system.cpu2.num_int_register_reads           18662844                       # number of times the integer registers were read
system.cpu2.num_int_register_writes           7675012                       # number of times the integer registers were written
system.cpu2.num_fp_register_reads                2988                       # number of times the floating registers were read
system.cpu2.num_fp_register_writes               1416                       # number of times the floating registers were written
system.cpu2.num_cc_register_reads             6147463                       # number of times the CC registers were read
system.cpu2.num_cc_register_writes            3268256                       # number of times the CC registers were written
system.cpu2.num_mem_refs                      2140230                       # number of memory refs
system.cpu2.num_load_insts                    1386068                       # Number of load instructions
system.cpu2.num_store_insts                    754162                       # Number of store instructions
system.cpu2.num_idle_cycles              4796648925.232262                       # Number of idle cycles
system.cpu2.num_busy_cycles              22268738.767739                       # Number of busy cycles
system.cpu2.not_idle_fraction                0.004621                       # Percentage of non-idle cycles
system.cpu2.idle_fraction                    0.995379                       # Percentage of idle cycles
system.cpu2.Branches                          1118190                       # Number of branches fetched
system.cpu2.op_class::No_OpClass                75193      0.78%      0.78% # Class of executed instruction
system.cpu2.op_class::IntAlu                  7348092     76.55%     77.33% # Class of executed instruction
system.cpu2.op_class::IntMult                    9013      0.09%     77.42% # Class of executed instruction
system.cpu2.op_class::IntDiv                    25514      0.27%     77.69% # Class of executed instruction
system.cpu2.op_class::FloatAdd                   1344      0.01%     77.70% # Class of executed instruction
system.cpu2.op_class::FloatCmp                      0      0.00%     77.70% # Class of executed instruction
system.cpu2.op_class::FloatCvt                      0      0.00%     77.70% # Class of executed instruction
system.cpu2.op_class::FloatMult                     0      0.00%     77.70% # Class of executed instruction
system.cpu2.op_class::FloatDiv                      0      0.00%     77.70% # Class of executed instruction
system.cpu2.op_class::FloatSqrt                     0      0.00%     77.70% # Class of executed instruction
system.cpu2.op_class::SimdAdd                       0      0.00%     77.70% # Class of executed instruction
system.cpu2.op_class::SimdAddAcc                    0      0.00%     77.70% # Class of executed instruction
system.cpu2.op_class::SimdAlu                       0      0.00%     77.70% # Class of executed instruction
system.cpu2.op_class::SimdCmp                       0      0.00%     77.70% # Class of executed instruction
system.cpu2.op_class::SimdCvt                       0      0.00%     77.70% # Class of executed instruction
system.cpu2.op_class::SimdMisc                      0      0.00%     77.70% # Class of executed instruction
system.cpu2.op_class::SimdMult                      0      0.00%     77.70% # Class of executed instruction
system.cpu2.op_class::SimdMultAcc                   0      0.00%     77.70% # Class of executed instruction
system.cpu2.op_class::SimdShift                     0      0.00%     77.70% # Class of executed instruction
system.cpu2.op_class::SimdShiftAcc                  0      0.00%     77.70% # Class of executed instruction
system.cpu2.op_class::SimdSqrt                      0      0.00%     77.70% # Class of executed instruction
system.cpu2.op_class::SimdFloatAdd                  0      0.00%     77.70% # Class of executed instruction
system.cpu2.op_class::SimdFloatAlu                  0      0.00%     77.70% # Class of executed instruction
system.cpu2.op_class::SimdFloatCmp                  0      0.00%     77.70% # Class of executed instruction
system.cpu2.op_class::SimdFloatCvt                  0      0.00%     77.70% # Class of executed instruction
system.cpu2.op_class::SimdFloatDiv                  0      0.00%     77.70% # Class of executed instruction
system.cpu2.op_class::SimdFloatMisc                 0      0.00%     77.70% # Class of executed instruction
system.cpu2.op_class::SimdFloatMult                 0      0.00%     77.70% # Class of executed instruction
system.cpu2.op_class::SimdFloatMultAcc              0      0.00%     77.70% # Class of executed instruction
system.cpu2.op_class::SimdFloatSqrt                 0      0.00%     77.70% # Class of executed instruction
system.cpu2.op_class::MemRead                 1386068     14.44%     92.14% # Class of executed instruction
system.cpu2.op_class::MemWrite                 754162      7.86%    100.00% # Class of executed instruction
system.cpu2.op_class::IprAccess                     0      0.00%    100.00% # Class of executed instruction
system.cpu2.op_class::InstPrefetch                  0      0.00%    100.00% # Class of executed instruction
system.cpu2.op_class::total                   9599386                       # Class of executed instruction
system.cpu3.apic_clk_domain.clock                8000                       # Clock period in ticks
system.cpu3.numCycles                      4818417645                       # number of cpu cycles simulated
system.cpu3.numWorkItemsStarted                     0                       # number of work items this cpu started
system.cpu3.numWorkItemsCompleted                   0                       # number of work items this cpu completed
system.cpu3.kern.inst.arm                           0                       # number of arm instructions executed
system.cpu3.kern.inst.quiesce                       0                       # number of quiesce instructions executed
system.cpu3.committedInsts                    2002177                       # Number of instructions committed
system.cpu3.committedOps                      4265142                       # Number of ops (including micro ops) committed
system.cpu3.num_int_alu_accesses              4176310                       # Number of integer alu accesses
system.cpu3.num_fp_alu_accesses                    39                       # Number of float alu accesses
system.cpu3.num_func_calls                     112386                       # number of times a function call or return occured
system.cpu3.num_conditional_control_insts       330258                       # number of instructions that are conditional controls
system.cpu3.num_int_insts                     4176310                       # number of integer instructions
system.cpu3.num_fp_insts                           39                       # number of float instructions
system.cpu3.num_int_register_reads            8365772                       # number of times the integer registers were read
system.cpu3.num_int_register_writes           3450688                       # number of times the integer registers were written
system.cpu3.num_fp_register_reads                  63                       # number of times the floating registers were read
system.cpu3.num_fp_register_writes                 31                       # number of times the floating registers were written
system.cpu3.num_cc_register_reads             2550688                       # number of times the CC registers were read
system.cpu3.num_cc_register_writes            1308281                       # number of times the CC registers were written
system.cpu3.num_mem_refs                       972595                       # number of memory refs
system.cpu3.num_load_insts                     605080                       # Number of load instructions
system.cpu3.num_store_insts                    367515                       # Number of store instructions
system.cpu3.num_idle_cycles              4807954789.400046                       # Number of idle cycles
system.cpu3.num_busy_cycles              10462855.599954                       # Number of busy cycles
system.cpu3.not_idle_fraction                0.002171                       # Percentage of non-idle cycles
system.cpu3.idle_fraction                    0.997829                       # Percentage of idle cycles
system.cpu3.Branches                           478896                       # Number of branches fetched
system.cpu3.op_class::No_OpClass                73644      1.73%      1.73% # Class of executed instruction
system.cpu3.op_class::IntAlu                  3184298     74.66%     76.38% # Class of executed instruction
system.cpu3.op_class::IntMult                    8061      0.19%     76.57% # Class of executed instruction
system.cpu3.op_class::IntDiv                    26536      0.62%     77.20% # Class of executed instruction
system.cpu3.op_class::FloatAdd                     30      0.00%     77.20% # Class of executed instruction
system.cpu3.op_class::FloatCmp                      0      0.00%     77.20% # Class of executed instruction
system.cpu3.op_class::FloatCvt                      0      0.00%     77.20% # Class of executed instruction
system.cpu3.op_class::FloatMult                     0      0.00%     77.20% # Class of executed instruction
system.cpu3.op_class::FloatDiv                      0      0.00%     77.20% # Class of executed instruction
system.cpu3.op_class::FloatSqrt                     0      0.00%     77.20% # Class of executed instruction
system.cpu3.op_class::SimdAdd                       0      0.00%     77.20% # Class of executed instruction
system.cpu3.op_class::SimdAddAcc                    0      0.00%     77.20% # Class of executed instruction
system.cpu3.op_class::SimdAlu                       0      0.00%     77.20% # Class of executed instruction
system.cpu3.op_class::SimdCmp                       0      0.00%     77.20% # Class of executed instruction
system.cpu3.op_class::SimdCvt                       0      0.00%     77.20% # Class of executed instruction
system.cpu3.op_class::SimdMisc                      0      0.00%     77.20% # Class of executed instruction
system.cpu3.op_class::SimdMult                      0      0.00%     77.20% # Class of executed instruction
system.cpu3.op_class::SimdMultAcc                   0      0.00%     77.20% # Class of executed instruction
system.cpu3.op_class::SimdShift                     0      0.00%     77.20% # Class of executed instruction
system.cpu3.op_class::SimdShiftAcc                  0      0.00%     77.20% # Class of executed instruction
system.cpu3.op_class::SimdSqrt                      0      0.00%     77.20% # Class of executed instruction
system.cpu3.op_class::SimdFloatAdd                  0      0.00%     77.20% # Class of executed instruction
system.cpu3.op_class::SimdFloatAlu                  0      0.00%     77.20% # Class of executed instruction
system.cpu3.op_class::SimdFloatCmp                  0      0.00%     77.20% # Class of executed instruction
system.cpu3.op_class::SimdFloatCvt                  0      0.00%     77.20% # Class of executed instruction
system.cpu3.op_class::SimdFloatDiv                  0      0.00%     77.20% # Class of executed instruction
system.cpu3.op_class::SimdFloatMisc                 0      0.00%     77.20% # Class of executed instruction
system.cpu3.op_class::SimdFloatMult                 0      0.00%     77.20% # Class of executed instruction
system.cpu3.op_class::SimdFloatMultAcc              0      0.00%     77.20% # Class of executed instruction
system.cpu3.op_class::SimdFloatSqrt                 0      0.00%     77.20% # Class of executed instruction
system.cpu3.op_class::MemRead                  605080     14.19%     91.38% # Class of executed instruction
system.cpu3.op_class::MemWrite                 367515      8.62%    100.00% # Class of executed instruction
system.cpu3.op_class::IprAccess                     0      0.00%    100.00% # Class of executed instruction
system.cpu3.op_class::InstPrefetch                  0      0.00%    100.00% # Class of executed instruction
system.cpu3.op_class::total                   4265164                       # Class of executed instruction
system.iobus.trans_dist::ReadReq                  412                       # Transaction distribution
system.iobus.trans_dist::ReadResp                 412                       # Transaction distribution
system.iobus.trans_dist::WriteReq                3136                       # Transaction distribution
system.iobus.trans_dist::WriteResp               3136                       # Transaction distribution
system.iobus.trans_dist::MessageReq                57                       # Transaction distribution
system.iobus.trans_dist::MessageResp               57                       # Transaction distribution
system.iobus.pkt_count_system.pc.south_bridge.io_apic.int_master::system.ruby.l0_cntrl0.sequencer.pio-slave-port           24                       # Packet count per connected master and slave (bytes)
system.iobus.pkt_count_system.pc.south_bridge.io_apic.int_master::system.ruby.l0_cntrl1.sequencer.pio-slave-port           22                       # Packet count per connected master and slave (bytes)
system.iobus.pkt_count_system.pc.south_bridge.io_apic.int_master::system.ruby.l0_cntrl2.sequencer.pio-slave-port           22                       # Packet count per connected master and slave (bytes)
system.iobus.pkt_count_system.pc.south_bridge.io_apic.int_master::system.ruby.l0_cntrl3.sequencer.pio-slave-port           24                       # Packet count per connected master and slave (bytes)
system.iobus.pkt_count_system.pc.south_bridge.io_apic.int_master::total           92                       # Packet count per connected master and slave (bytes)
system.iobus.pkt_count_system.ruby.l0_cntrl0.sequencer.mem-master-port::system.pc.south_bridge.ide.pio          460                       # Packet count per connected master and slave (bytes)
system.iobus.pkt_count_system.ruby.l0_cntrl0.sequencer.mem-master-port::system.pc.south_bridge.io_apic.pio            6                       # Packet count per connected master and slave (bytes)
system.iobus.pkt_count_system.ruby.l0_cntrl0.sequencer.mem-master-port::system.pc.com_1.pio          176                       # Packet count per connected master and slave (bytes)
system.iobus.pkt_count_system.ruby.l0_cntrl0.sequencer.mem-master-port::system.ruby.l0_cntrl0.sequencer.pio-slave-port         1262                       # Packet count per connected master and slave (bytes)
system.iobus.pkt_count_system.ruby.l0_cntrl0.sequencer.mem-master-port::system.ruby.l0_cntrl1.sequencer.pio-slave-port            6                       # Packet count per connected master and slave (bytes)
system.iobus.pkt_count_system.ruby.l0_cntrl0.sequencer.mem-master-port::system.ruby.l0_cntrl3.sequencer.pio-slave-port            2                       # Packet count per connected master and slave (bytes)
system.iobus.pkt_count_system.ruby.l0_cntrl0.sequencer.mem-master-port::total         1912                       # Packet count per connected master and slave (bytes)
system.iobus.pkt_count_system.ruby.l0_cntrl1.sequencer.mem-master-port::system.pc.south_bridge.ide.pio          596                       # Packet count per connected master and slave (bytes)
system.iobus.pkt_count_system.ruby.l0_cntrl1.sequencer.mem-master-port::system.pc.south_bridge.io_apic.pio            8                       # Packet count per connected master and slave (bytes)
system.iobus.pkt_count_system.ruby.l0_cntrl1.sequencer.mem-master-port::system.ruby.l0_cntrl0.sequencer.pio-slave-port            4                       # Packet count per connected master and slave (bytes)
system.iobus.pkt_count_system.ruby.l0_cntrl1.sequencer.mem-master-port::system.ruby.l0_cntrl1.sequencer.pio-slave-port         1254                       # Packet count per connected master and slave (bytes)
system.iobus.pkt_count_system.ruby.l0_cntrl1.sequencer.mem-master-port::system.ruby.l0_cntrl2.sequencer.pio-slave-port            2                       # Packet count per connected master and slave (bytes)
system.iobus.pkt_count_system.ruby.l0_cntrl1.sequencer.mem-master-port::total         1864                       # Packet count per connected master and slave (bytes)
system.iobus.pkt_count_system.ruby.l0_cntrl2.sequencer.mem-master-port::system.pc.south_bridge.ide.pio          392                       # Packet count per connected master and slave (bytes)
system.iobus.pkt_count_system.ruby.l0_cntrl2.sequencer.mem-master-port::system.pc.south_bridge.io_apic.pio            8                       # Packet count per connected master and slave (bytes)
system.iobus.pkt_count_system.ruby.l0_cntrl2.sequencer.mem-master-port::system.pc.com_1.pio            2                       # Packet count per connected master and slave (bytes)
system.iobus.pkt_count_system.ruby.l0_cntrl2.sequencer.mem-master-port::system.ruby.l0_cntrl0.sequencer.pio-slave-port            2                       # Packet count per connected master and slave (bytes)
system.iobus.pkt_count_system.ruby.l0_cntrl2.sequencer.mem-master-port::system.ruby.l0_cntrl1.sequencer.pio-slave-port            2                       # Packet count per connected master and slave (bytes)
system.iobus.pkt_count_system.ruby.l0_cntrl2.sequencer.mem-master-port::system.ruby.l0_cntrl2.sequencer.pio-slave-port         1248                       # Packet count per connected master and slave (bytes)
system.iobus.pkt_count_system.ruby.l0_cntrl2.sequencer.mem-master-port::system.ruby.l0_cntrl3.sequencer.pio-slave-port            2                       # Packet count per connected master and slave (bytes)
system.iobus.pkt_count_system.ruby.l0_cntrl2.sequencer.mem-master-port::total         1656                       # Packet count per connected master and slave (bytes)
system.iobus.pkt_count_system.ruby.l0_cntrl3.sequencer.mem-master-port::system.pc.south_bridge.ide.pio          438                       # Packet count per connected master and slave (bytes)
system.iobus.pkt_count_system.ruby.l0_cntrl3.sequencer.mem-master-port::system.pc.south_bridge.io_apic.pio            8                       # Packet count per connected master and slave (bytes)
system.iobus.pkt_count_system.ruby.l0_cntrl3.sequencer.mem-master-port::system.ruby.l0_cntrl0.sequencer.pio-slave-port            2                       # Packet count per connected master and slave (bytes)
system.iobus.pkt_count_system.ruby.l0_cntrl3.sequencer.mem-master-port::system.ruby.l0_cntrl3.sequencer.pio-slave-port         1238                       # Packet count per connected master and slave (bytes)
system.iobus.pkt_count_system.ruby.l0_cntrl3.sequencer.mem-master-port::total         1686                       # Packet count per connected master and slave (bytes)
system.iobus.pkt_count::total                    7210                       # Packet count per connected master and slave (bytes)
system.iobus.pkt_size_system.pc.south_bridge.io_apic.int_master::system.ruby.l0_cntrl0.sequencer.pio-slave-port           48                       # Cumulative packet size per connected master and slave (bytes)
system.iobus.pkt_size_system.pc.south_bridge.io_apic.int_master::system.ruby.l0_cntrl1.sequencer.pio-slave-port           44                       # Cumulative packet size per connected master and slave (bytes)
system.iobus.pkt_size_system.pc.south_bridge.io_apic.int_master::system.ruby.l0_cntrl2.sequencer.pio-slave-port           44                       # Cumulative packet size per connected master and slave (bytes)
system.iobus.pkt_size_system.pc.south_bridge.io_apic.int_master::system.ruby.l0_cntrl3.sequencer.pio-slave-port           48                       # Cumulative packet size per connected master and slave (bytes)
system.iobus.pkt_size_system.pc.south_bridge.io_apic.int_master::total          184                       # Cumulative packet size per connected master and slave (bytes)
system.iobus.pkt_size_system.ruby.l0_cntrl0.sequencer.mem-master-port::system.pc.south_bridge.ide.pio          260                       # Cumulative packet size per connected master and slave (bytes)
system.iobus.pkt_size_system.ruby.l0_cntrl0.sequencer.mem-master-port::system.pc.south_bridge.io_apic.pio           12                       # Cumulative packet size per connected master and slave (bytes)
system.iobus.pkt_size_system.ruby.l0_cntrl0.sequencer.mem-master-port::system.pc.com_1.pio           88                       # Cumulative packet size per connected master and slave (bytes)
system.iobus.pkt_size_system.ruby.l0_cntrl0.sequencer.mem-master-port::system.ruby.l0_cntrl0.sequencer.pio-slave-port         2524                       # Cumulative packet size per connected master and slave (bytes)
system.iobus.pkt_size_system.ruby.l0_cntrl0.sequencer.mem-master-port::system.ruby.l0_cntrl1.sequencer.pio-slave-port           12                       # Cumulative packet size per connected master and slave (bytes)
system.iobus.pkt_size_system.ruby.l0_cntrl0.sequencer.mem-master-port::system.ruby.l0_cntrl3.sequencer.pio-slave-port            4                       # Cumulative packet size per connected master and slave (bytes)
system.iobus.pkt_size_system.ruby.l0_cntrl0.sequencer.mem-master-port::total         2900                       # Cumulative packet size per connected master and slave (bytes)
system.iobus.pkt_size_system.ruby.l0_cntrl1.sequencer.mem-master-port::system.pc.south_bridge.ide.pio          340                       # Cumulative packet size per connected master and slave (bytes)
system.iobus.pkt_size_system.ruby.l0_cntrl1.sequencer.mem-master-port::system.pc.south_bridge.io_apic.pio           16                       # Cumulative packet size per connected master and slave (bytes)
system.iobus.pkt_size_system.ruby.l0_cntrl1.sequencer.mem-master-port::system.ruby.l0_cntrl0.sequencer.pio-slave-port            8                       # Cumulative packet size per connected master and slave (bytes)
system.iobus.pkt_size_system.ruby.l0_cntrl1.sequencer.mem-master-port::system.ruby.l0_cntrl1.sequencer.pio-slave-port         2508                       # Cumulative packet size per connected master and slave (bytes)
system.iobus.pkt_size_system.ruby.l0_cntrl1.sequencer.mem-master-port::system.ruby.l0_cntrl2.sequencer.pio-slave-port            4                       # Cumulative packet size per connected master and slave (bytes)
system.iobus.pkt_size_system.ruby.l0_cntrl1.sequencer.mem-master-port::total         2876                       # Cumulative packet size per connected master and slave (bytes)
system.iobus.pkt_size_system.ruby.l0_cntrl2.sequencer.mem-master-port::system.pc.south_bridge.ide.pio          220                       # Cumulative packet size per connected master and slave (bytes)
system.iobus.pkt_size_system.ruby.l0_cntrl2.sequencer.mem-master-port::system.pc.south_bridge.io_apic.pio           16                       # Cumulative packet size per connected master and slave (bytes)
system.iobus.pkt_size_system.ruby.l0_cntrl2.sequencer.mem-master-port::system.pc.com_1.pio            1                       # Cumulative packet size per connected master and slave (bytes)
system.iobus.pkt_size_system.ruby.l0_cntrl2.sequencer.mem-master-port::system.ruby.l0_cntrl0.sequencer.pio-slave-port            4                       # Cumulative packet size per connected master and slave (bytes)
system.iobus.pkt_size_system.ruby.l0_cntrl2.sequencer.mem-master-port::system.ruby.l0_cntrl1.sequencer.pio-slave-port            4                       # Cumulative packet size per connected master and slave (bytes)
system.iobus.pkt_size_system.ruby.l0_cntrl2.sequencer.mem-master-port::system.ruby.l0_cntrl2.sequencer.pio-slave-port         2496                       # Cumulative packet size per connected master and slave (bytes)
system.iobus.pkt_size_system.ruby.l0_cntrl2.sequencer.mem-master-port::system.ruby.l0_cntrl3.sequencer.pio-slave-port            4                       # Cumulative packet size per connected master and slave (bytes)
system.iobus.pkt_size_system.ruby.l0_cntrl2.sequencer.mem-master-port::total         2745                       # Cumulative packet size per connected master and slave (bytes)
system.iobus.pkt_size_system.ruby.l0_cntrl3.sequencer.mem-master-port::system.pc.south_bridge.ide.pio          246                       # Cumulative packet size per connected master and slave (bytes)
system.iobus.pkt_size_system.ruby.l0_cntrl3.sequencer.mem-master-port::system.pc.south_bridge.io_apic.pio           16                       # Cumulative packet size per connected master and slave (bytes)
system.iobus.pkt_size_system.ruby.l0_cntrl3.sequencer.mem-master-port::system.ruby.l0_cntrl0.sequencer.pio-slave-port            4                       # Cumulative packet size per connected master and slave (bytes)
system.iobus.pkt_size_system.ruby.l0_cntrl3.sequencer.mem-master-port::system.ruby.l0_cntrl3.sequencer.pio-slave-port         2476                       # Cumulative packet size per connected master and slave (bytes)
system.iobus.pkt_size_system.ruby.l0_cntrl3.sequencer.mem-master-port::total         2742                       # Cumulative packet size per connected master and slave (bytes)
system.iobus.pkt_size::total                    11447                       # Cumulative packet size per connected master and slave (bytes)
system.iobus.reqLayer2.occupancy              1613000                       # Layer occupancy (ticks)
system.iobus.reqLayer2.utilization                0.0                       # Layer utilization (%)
system.iobus.reqLayer8.occupancy                26996                       # Layer occupancy (ticks)
system.iobus.reqLayer8.utilization                0.0                       # Layer utilization (%)
system.iobus.reqLayer12.occupancy              113500                       # Layer occupancy (ticks)
system.iobus.reqLayer12.utilization               0.0                       # Layer utilization (%)
system.iobus.reqLayer17.occupancy             1541489                       # Layer occupancy (ticks)
system.iobus.reqLayer17.utilization               0.0                       # Layer utilization (%)
system.iobus.reqLayer18.occupancy             1706468                       # Layer occupancy (ticks)
system.iobus.reqLayer18.utilization               0.0                       # Layer utilization (%)
system.iobus.reqLayer19.occupancy             1544488                       # Layer occupancy (ticks)
system.iobus.reqLayer19.utilization               0.0                       # Layer utilization (%)
system.iobus.reqLayer20.occupancy             1547988                       # Layer occupancy (ticks)
system.iobus.reqLayer20.utilization               0.0                       # Layer utilization (%)
system.iobus.respLayer0.occupancy               75959                       # Layer occupancy (ticks)
system.iobus.respLayer0.utilization               0.0                       # Layer utilization (%)
system.iobus.respLayer2.occupancy             1422500                       # Layer occupancy (ticks)
system.iobus.respLayer2.utilization               0.0                       # Layer utilization (%)
system.iobus.respLayer4.occupancy             1346500                       # Layer occupancy (ticks)
system.iobus.respLayer4.utilization               0.0                       # Layer utilization (%)
system.iobus.respLayer6.occupancy             1217000                       # Layer occupancy (ticks)
system.iobus.respLayer6.utilization               0.0                       # Layer utilization (%)
system.iobus.respLayer8.occupancy             1235500                       # Layer occupancy (ticks)
system.iobus.respLayer8.utilization               0.0                       # Layer utilization (%)
system.pc.south_bridge.ide.disks.dma_read_full_pages          357                       # Number of full page size DMA reads (not PRD).
system.pc.south_bridge.ide.disks.dma_read_bytes      1462272                       # Number of bytes transfered via DMA reads (not PRD).
system.pc.south_bridge.ide.disks.dma_read_txs          357                       # Number of DMA read transactions (not PRD).
system.pc.south_bridge.ide.disks.dma_write_full_pages            0                       # Number of full page size DMA writes.
system.pc.south_bridge.ide.disks.dma_write_bytes            0                       # Number of bytes transfered via DMA writes.
system.pc.south_bridge.ide.disks.dma_write_txs            0                       # Number of DMA write transactions.
system.ruby.clk_domain.clock                      500                       # Clock period in ticks
system.ruby.delayHist::bucket_size                  8                       # delay histogram for all message
system.ruby.delayHist::max_bucket                  79                       # delay histogram for all message
system.ruby.delayHist::samples               42790449                       # delay histogram for all message
system.ruby.delayHist::mean                  0.350804                       # delay histogram for all message
system.ruby.delayHist::stdev                 2.342856                       # delay histogram for all message
system.ruby.delayHist                    |    41854436     97.81%     97.81% |        2593      0.01%     97.82% |      932651      2.18%    100.00% |         245      0.00%    100.00% |         499      0.00%    100.00% |           8      0.00%    100.00% |          17      0.00%    100.00% |           0      0.00%    100.00% |           0      0.00%    100.00% |           0      0.00%    100.00% # delay histogram for all message
system.ruby.delayHist::total                 42790449                       # delay histogram for all message
system.ruby.outstanding_req_hist_seqr::bucket_size            1                      
system.ruby.outstanding_req_hist_seqr::max_bucket            9                      
system.ruby.outstanding_req_hist_seqr::samples   2271126186                      
system.ruby.outstanding_req_hist_seqr::mean     1.000462                      
system.ruby.outstanding_req_hist_seqr::gmean     1.000320                      
system.ruby.outstanding_req_hist_seqr::stdev     0.021479                      
system.ruby.outstanding_req_hist_seqr    |           0      0.00%      0.00% |  2270077916     99.95%     99.95% |     1048270      0.05%    100.00% |           0      0.00%    100.00% |           0      0.00%    100.00% |           0      0.00%    100.00% |           0      0.00%    100.00% |           0      0.00%    100.00% |           0      0.00%    100.00% |           0      0.00%    100.00%
system.ruby.outstanding_req_hist_seqr::total   2271126186                      
system.ruby.latency_hist_seqr::bucket_size          256                      
[...]
system.ruby.L1Cache_Controller.Ack::total        18280                      
system.ruby.L1Cache_Controller.Ack_all   |        4099     39.68%     39.68% |        2158     20.89%     60.57% |        2247     21.75%     82.32% |        1826     17.68%    100.00%
system.ruby.L1Cache_Controller.Ack_all::total        10330                      
system.ruby.L1Cache_Controller.WB_Ack    |       89182      4.04%      4.04% |     1786861     80.88%     84.92% |      308883     13.98%     98.90% |       24358      1.10%    100.00%
system.ruby.L1Cache_Controller.WB_Ack::total      2209284                      
system.ruby.L1Cache_Controller.I.Load    |      125477      6.32%      6.32% |     1468316     73.93%     80.24% |      333414     16.79%     97.03% |       58986      2.97%    100.00%
system.ruby.L1Cache_Controller.I.Load::total      1986193                      
system.ruby.L1Cache_Controller.I.Store   |       20368      4.17%      4.17% |      405066     83.00%     87.18% |       54254     11.12%     98.30% |        8315      1.70%    100.00%
system.ruby.L1Cache_Controller.I.Store::total       488003                      
system.ruby.L1Cache_Controller.I.Inv     |        4225     25.85%     25.85% |        4838     29.60%     55.45% |        4022     24.61%     80.06% |        3258     19.94%    100.00%
system.ruby.L1Cache_Controller.I.Inv::total        16343                      
system.ruby.L1Cache_Controller.S.Load    |      166100     13.68%     13.68% |      727302     59.89%     73.57% |      188409     15.52%     89.09% |      132501     10.91%    100.00%
system.ruby.L1Cache_Controller.S.Load::total      1214312                      
system.ruby.L1Cache_Controller.S.Store   |        2656     39.09%     39.09% |        1475     21.71%     60.80% |        1459     21.47%     82.28% |        1204     17.72%    100.00%
system.ruby.L1Cache_Controller.S.Store::total         6794                      
system.ruby.L1Cache_Controller.S.L0_Invalidate_Own |       45592     20.42%     20.42% |       80710     36.15%     56.58% |       66736     29.89%     86.47% |       30206     13.53%    100.00%
system.ruby.L1Cache_Controller.S.L0_Invalidate_Own::total       223244                      
system.ruby.L1Cache_Controller.S.L0_Invalidate_Else |        4629     23.51%     23.51% |        2485     12.62%     36.13% |        6234     31.66%     67.79% |        6341     32.21%    100.00%
system.ruby.L1Cache_Controller.S.L0_Invalidate_Else::total        19689                      
system.ruby.L1Cache_Controller.SS.Load   |        2160     32.48%     32.48% |         644      9.68%     42.16% |        1520     22.85%     65.01% |        2327     34.99%    100.00%
system.ruby.L1Cache_Controller.SS.Load::total         6651                      
system.ruby.L1Cache_Controller.SS.Store  |        1025     87.46%     87.46% |          40      3.41%     90.87% |          81      6.91%     97.78% |          26      2.22%    100.00%
system.ruby.L1Cache_Controller.SS.Store::total         1172                      
system.ruby.L1Cache_Controller.SS.Inv    |        5934     22.90%     22.90% |        3407     13.15%     36.05% |        7806     30.13%     66.18% |        8763     33.82%    100.00%
system.ruby.L1Cache_Controller.SS.Inv::total        25910                      
system.ruby.L1Cache_Controller.SS.L1_Replacement |       46138     20.33%     20.33% |       82038     36.16%     56.49% |       67829     29.89%     86.38% |       30895     13.62%    100.00%
system.ruby.L1Cache_Controller.SS.L1_Replacement::total       226900                      
system.ruby.L1Cache_Controller.E.WriteBack |       73136      4.36%      4.36% |     1327220     79.10%     83.46% |      255024     15.20%     98.66% |       22558      1.34%    100.00%
system.ruby.L1Cache_Controller.E.WriteBack::total      1677938                      
system.ruby.L1Cache_Controller.E.L0_Invalidate_Own |        1256      1.99%      1.99% |       56914     90.09%     92.08% |        4848      7.67%     99.75% |         158      0.25%    100.00%
system.ruby.L1Cache_Controller.E.L0_Invalidate_Own::total        63176                      
system.ruby.L1Cache_Controller.E.L0_Invalidate_Else |         316     17.27%     17.27% |         123      6.72%     23.99% |         616     33.66%     57.65% |         775     42.35%    100.00%
system.ruby.L1Cache_Controller.E.L0_Invalidate_Else::total         1830                      
system.ruby.L1Cache_Controller.EE.Inv    |         166     26.90%     26.90% |          15      2.43%     29.34% |         270     43.76%     73.10% |         166     26.90%    100.00%
system.ruby.L1Cache_Controller.EE.Inv::total          617                      
system.ruby.L1Cache_Controller.EE.L1_Replacement |        1155      1.84%      1.84% |       56740     90.47%     92.31% |        4680      7.46%     99.78% |         140      0.22%    100.00%
system.ruby.L1Cache_Controller.EE.L1_Replacement::total        62715                      
system.ruby.L1Cache_Controller.EE.Fwd_GETX |           9     64.29%     64.29% |           3     21.43%     85.71% |           1      7.14%     92.86% |           1      7.14%    100.00%
system.ruby.L1Cache_Controller.EE.Fwd_GETX::total           14                      
system.ruby.L1Cache_Controller.EE.Fwd_GETS |          92      9.41%      9.41% |          82      8.38%     17.79% |         272     27.81%     45.60% |         532     54.40%    100.00%
system.ruby.L1Cache_Controller.EE.Fwd_GETS::total          978                      
system.ruby.L1Cache_Controller.M.WriteBack |      270893      0.85%      0.85% |    27542009     86.36%     87.21% |     3973945     12.46%     99.67% |      104346      0.33%    100.00%
system.ruby.L1Cache_Controller.M.WriteBack::total     31891193                      
system.ruby.L1Cache_Controller.M.L0_Invalidate_Own |        2702     12.09%     12.09% |       12282     54.95%     67.04% |        6160     27.56%     94.60% |        1207      5.40%    100.00%
system.ruby.L1Cache_Controller.M.L0_Invalidate_Own::total        22351                      
system.ruby.L1Cache_Controller.M.L0_Invalidate_Else |        1664     38.34%     38.34% |         416      9.59%     47.93% |        1009     23.25%     71.18% |        1251     28.82%    100.00%
system.ruby.L1Cache_Controller.M.L0_Invalidate_Else::total         4340                      
system.ruby.L1Cache_Controller.MM.Load   |      177582      0.61%      0.61% |    25136209     86.82%     87.43% |     3572311     12.34%     99.77% |       65455      0.23%    100.00%
system.ruby.L1Cache_Controller.MM.Load::total     28951557                      
system.ruby.L1Cache_Controller.MM.Store  |       73630      2.98%      2.98% |     2011919     81.44%     84.42% |      353003     14.29%     98.71% |       31800      1.29%    100.00%
system.ruby.L1Cache_Controller.MM.Store::total      2470352                      
system.ruby.L1Cache_Controller.MM.Inv    |        4125     40.91%     40.91% |         589      5.84%     46.75% |        2563     25.42%     72.16% |        2807     27.84%    100.00%
system.ruby.L1Cache_Controller.MM.Inv::total        10084                      
system.ruby.L1Cache_Controller.MM.L1_Replacement |       88027      4.10%      4.10% |     1730121     80.60%     84.70% |      304203     14.17%     98.87% |       24218      1.13%    100.00%
system.ruby.L1Cache_Controller.MM.L1_Replacement::total      2146569                      
system.ruby.L1Cache_Controller.MM.Fwd_GETX |         327     23.13%     23.13% |         462     32.67%     55.80% |         316     22.35%     78.15% |         309     21.85%    100.00%
system.ruby.L1Cache_Controller.MM.Fwd_GETX::total         1414                      
system.ruby.L1Cache_Controller.MM.Fwd_GETS |        4866     29.36%     29.36% |        2820     17.01%     46.37% |        3994     24.10%     70.47% |        4894     29.53%    100.00%
system.ruby.L1Cache_Controller.MM.Fwd_GETS::total        16574                      
system.ruby.L1Cache_Controller.IS.Data_Exclusive |       74707      4.29%      4.29% |     1384256     79.42%     83.71% |      260479     14.94%     98.65% |       23492      1.35%    100.00%
system.ruby.L1Cache_Controller.IS.Data_Exclusive::total      1742934                      
system.ruby.L1Cache_Controller.IS.DataS_fromL1 |        4538     25.85%     25.85% |        3571     20.35%     46.20% |        5700     32.47%     78.67% |        3743     21.33%    100.00%
system.ruby.L1Cache_Controller.IS.DataS_fromL1::total        17552                      
system.ruby.L1Cache_Controller.IS.Data_all_Acks |       46232     20.48%     20.48% |       80489     35.66%     56.14% |       67235     29.79%     85.93% |       31751     14.07%    100.00%
system.ruby.L1Cache_Controller.IS.Data_all_Acks::total       225707                      
system.ruby.L1Cache_Controller.IM.Data   |         418     17.67%     17.67% |         643     27.19%     44.86% |         708     29.94%     74.80% |         596     25.20%    100.00%
system.ruby.L1Cache_Controller.IM.Data::total         2365                      
system.ruby.L1Cache_Controller.IM.Data_all_Acks |       19950      4.11%      4.11% |      404423     83.28%     87.38% |       53547     11.03%     98.41% |        7719      1.59%    100.00%
system.ruby.L1Cache_Controller.IM.Data_all_Acks::total       485639                      
system.ruby.L1Cache_Controller.IM.Ack    |           0      0.00%      0.00% |           1     25.00%     25.00% |           3     75.00%    100.00% |           0      0.00%    100.00%
system.ruby.L1Cache_Controller.IM.Ack::total            4                      
system.ruby.L1Cache_Controller.SM.Inv    |           0      0.00%      0.00% |           0      0.00%      0.00% |           1    100.00%    100.00% |           0      0.00%    100.00%
system.ruby.L1Cache_Controller.SM.Inv::total            1                      
system.ruby.L1Cache_Controller.SM.Ack    |        9518     52.08%     52.08% |        3533     19.33%     71.41% |        2842     15.55%     86.96% |        2383     13.04%    100.00%
system.ruby.L1Cache_Controller.SM.Ack::total        18276                      
system.ruby.L1Cache_Controller.SM.Ack_all |        4099     39.68%     39.68% |        2158     20.89%     60.57% |        2247     21.75%     82.32% |        1826     17.68%    100.00%
system.ruby.L1Cache_Controller.SM.Ack_all::total        10330                      
system.ruby.L1Cache_Controller.M_I.WB_Ack |       89182      4.04%      4.04% |     1786861     80.88%     84.92% |      308883     13.98%     98.90% |       24358      1.10%    100.00%
system.ruby.L1Cache_Controller.M_I.WB_Ack::total      2209284                      
system.ruby.L1Cache_Controller.S_IL0.L0_Invalidate_Own |       45592     20.42%     20.42% |       80710     36.15%     56.58% |       66736     29.89%     86.47% |       30206     13.53%    100.00%
system.ruby.L1Cache_Controller.S_IL0.L0_Invalidate_Own::total       223244                      
system.ruby.L1Cache_Controller.S_IL0.L0_Invalidate_Else |        4629     23.51%     23.51% |        2485     12.62%     36.13% |        6234     31.66%     67.79% |        6341     32.21%    100.00%
system.ruby.L1Cache_Controller.S_IL0.L0_Invalidate_Else::total        19689                      
system.ruby.L1Cache_Controller.S_IL0.L0_Ack |       50221     20.67%     20.67% |       83195     34.25%     54.92% |       72970     30.04%     84.96% |       36547     15.04%    100.00%
system.ruby.L1Cache_Controller.S_IL0.L0_Ack::total       242933                      
system.ruby.L1Cache_Controller.E_IL0.L0_DataAck |         150     21.99%     21.99% |         197     28.89%     50.88% |         241     35.34%     86.22% |          94     13.78%    100.00%
system.ruby.L1Cache_Controller.E_IL0.L0_DataAck::total          682                      
system.ruby.L1Cache_Controller.E_IL0.L0_Invalidate_Own |        1256      1.99%      1.99% |       56914     90.09%     92.08% |        4848      7.67%     99.75% |         158      0.25%    100.00%
system.ruby.L1Cache_Controller.E_IL0.L0_Invalidate_Own::total        63176                      
system.ruby.L1Cache_Controller.E_IL0.L0_Invalidate_Else |         316     17.27%     17.27% |         123      6.72%     23.99% |         616     33.66%     57.65% |         775     42.35%    100.00%
system.ruby.L1Cache_Controller.E_IL0.L0_Invalidate_Else::total         1830                      
system.ruby.L1Cache_Controller.E_IL0.L0_Ack |        1422      2.21%      2.21% |       56840     88.37%     90.58% |        5223      8.12%     98.70% |         839      1.30%    100.00%
system.ruby.L1Cache_Controller.E_IL0.L0_Ack::total        64324                      
system.ruby.L1Cache_Controller.M_IL0.WriteBack |           0      0.00%      0.00% |           1     50.00%     50.00% |           0      0.00%     50.00% |           1     50.00%    100.00%
system.ruby.L1Cache_Controller.M_IL0.WriteBack::total            2                      
system.ruby.L1Cache_Controller.M_IL0.L0_DataAck |        1874     23.18%     23.18% |        2668     33.00%     56.18% |        2309     28.56%     84.74% |        1234     15.26%    100.00%
system.ruby.L1Cache_Controller.M_IL0.L0_DataAck::total         8085                      
system.ruby.L1Cache_Controller.M_IL0.L0_Invalidate_Own |        2702     12.09%     12.09% |       12282     54.95%     67.04% |        6160     27.56%     94.60% |        1207      5.40%    100.00%
system.ruby.L1Cache_Controller.M_IL0.L0_Invalidate_Own::total        22351                      
system.ruby.L1Cache_Controller.M_IL0.L0_Invalidate_Else |        1664     38.34%     38.34% |         416      9.59%     47.93% |        1009     23.25%     71.18% |        1251     28.82%    100.00%
system.ruby.L1Cache_Controller.M_IL0.L0_Invalidate_Else::total         4340                      
system.ruby.L1Cache_Controller.M_IL0.L0_Ack |        2492     13.39%     13.39% |       10029     53.91%     67.30% |        4860     26.12%     93.43% |        1223      6.57%    100.00%
system.ruby.L1Cache_Controller.M_IL0.L0_Ack::total        18604                      
system.ruby.L1Cache_Controller.MM_IL0.Fwd_GETX |           0      0.00%      0.00% |           0      0.00%      0.00% |           0      0.00%      0.00% |           1    100.00%    100.00%
system.ruby.L1Cache_Controller.MM_IL0.Fwd_GETX::total            1                      
system.ruby.L1Cache_Controller.MM_IL0.Fwd_GETS |           0      0.00%      0.00% |           1    100.00%    100.00% |           0      0.00%    100.00% |           0      0.00%    100.00%
system.ruby.L1Cache_Controller.MM_IL0.Fwd_GETS::total            1                      
system.ruby.L1Cache_Controller.MM_IL0.L0_Ack |           0      0.00%      0.00% |           1     50.00%     50.00% |           0      0.00%     50.00% |           1     50.00%    100.00%
system.ruby.L1Cache_Controller.MM_IL0.L0_Ack::total            2                      
system.ruby.L2Cache_Controller.L1_GETS        1986242      0.00%      0.00%
system.ruby.L2Cache_Controller.L1_GETX         488007      0.00%      0.00%
system.ruby.L2Cache_Controller.L1_UPGRADE         7966      0.00%      0.00%
system.ruby.L2Cache_Controller.L1_PUTX        2209284      0.00%      0.00%
system.ruby.L2Cache_Controller.L2_Replacement       653070      0.00%      0.00%
system.ruby.L2Cache_Controller.L2_Replacement_clean       453672      0.00%      0.00%
system.ruby.L2Cache_Controller.Mem_Data       1107145      0.00%      0.00%
system.ruby.L2Cache_Controller.Mem_Ack        1106883      0.00%      0.00%
system.ruby.L2Cache_Controller.WB_Data          12928      0.00%      0.00%
system.ruby.L2Cache_Controller.WB_Data_clean        14708      0.00%      0.00%
system.ruby.L2Cache_Controller.Ack              14867      0.00%      0.00%
system.ruby.L2Cache_Controller.Ack_all           7359      0.00%      0.00%
system.ruby.L2Cache_Controller.Unblock          17552      0.00%      0.00%
system.ruby.L2Cache_Controller.Exclusive_Unblock      2238903      0.00%      0.00%
system.ruby.L2Cache_Controller.MEM_Inv            282      0.00%      0.00%
system.ruby.L2Cache_Controller.NP.L1_GETS       711608      0.00%      0.00%
system.ruby.L2Cache_Controller.NP.L1_GETX       395537      0.00%      0.00%
system.ruby.L2Cache_Controller.SS.L1_GETS       225705      0.00%      0.00%
system.ruby.L2Cache_Controller.SS.L1_GETX         2368      0.00%      0.00%
system.ruby.L2Cache_Controller.SS.L1_UPGRADE         7965      0.00%      0.00%
system.ruby.L2Cache_Controller.SS.L2_Replacement          396      0.00%      0.00%
system.ruby.L2Cache_Controller.SS.L2_Replacement_clean         6346      0.00%      0.00%
system.ruby.L2Cache_Controller.M.L1_GETS      1031327      0.00%      0.00%
system.ruby.L2Cache_Controller.M.L1_GETX        88671      0.00%      0.00%
system.ruby.L2Cache_Controller.M.L2_Replacement       651295      0.00%      0.00%
system.ruby.L2Cache_Controller.M.L2_Replacement_clean       438021      0.00%      0.00%
system.ruby.L2Cache_Controller.M.MEM_Inv          124      0.00%      0.00%
system.ruby.L2Cache_Controller.MT.L1_GETS        17552      0.00%      0.00%
system.ruby.L2Cache_Controller.MT.L1_GETX         1428      0.00%      0.00%
system.ruby.L2Cache_Controller.MT.L1_PUTX      2209284      0.00%      0.00%
system.ruby.L2Cache_Controller.MT.L2_Replacement         1379      0.00%      0.00%
system.ruby.L2Cache_Controller.MT.L2_Replacement_clean         9305      0.00%      0.00%
system.ruby.L2Cache_Controller.MT.MEM_Inv           17      0.00%      0.00%
system.ruby.L2Cache_Controller.M_I.Mem_Ack      1106883      0.00%      0.00%
system.ruby.L2Cache_Controller.M_I.MEM_Inv          124      0.00%      0.00%
system.ruby.L2Cache_Controller.MT_I.WB_Data         1155      0.00%      0.00%
system.ruby.L2Cache_Controller.MT_I.WB_Data_clean          221      0.00%      0.00%
system.ruby.L2Cache_Controller.MT_I.Ack_all           20      0.00%      0.00%
system.ruby.L2Cache_Controller.MT_I.MEM_Inv           17      0.00%      0.00%
system.ruby.L2Cache_Controller.MCT_I.WB_Data         4220      0.00%      0.00%
system.ruby.L2Cache_Controller.MCT_I.WB_Data_clean         4488      0.00%      0.00%
system.ruby.L2Cache_Controller.MCT_I.Ack_all          597      0.00%      0.00%
system.ruby.L2Cache_Controller.I_I.Ack          14364      0.00%      0.00%
system.ruby.L2Cache_Controller.I_I.Ack_all         6346      0.00%      0.00%
system.ruby.L2Cache_Controller.S_I.Ack            503      0.00%      0.00%
system.ruby.L2Cache_Controller.S_I.Ack_all          396      0.00%      0.00%
system.ruby.L2Cache_Controller.ISS.L1_GETS            1      0.00%      0.00%
system.ruby.L2Cache_Controller.ISS.Mem_Data       711607      0.00%      0.00%
system.ruby.L2Cache_Controller.IS.Mem_Data            1      0.00%      0.00%
system.ruby.L2Cache_Controller.IM.Mem_Data       395537      0.00%      0.00%
system.ruby.L2Cache_Controller.SS_MB.L1_GETS           41      0.00%      0.00%
system.ruby.L2Cache_Controller.SS_MB.L1_UPGRADE            1      0.00%      0.00%
system.ruby.L2Cache_Controller.SS_MB.Exclusive_Unblock        10333      0.00%      0.00%
system.ruby.L2Cache_Controller.MT_MB.L1_GETS            1      0.00%      0.00%
system.ruby.L2Cache_Controller.MT_MB.L1_GETX            2      0.00%      0.00%
system.ruby.L2Cache_Controller.MT_MB.Exclusive_Unblock      2228570      0.00%      0.00%
system.ruby.L2Cache_Controller.MT_IIB.L1_GETS            7      0.00%      0.00%
system.ruby.L2Cache_Controller.MT_IIB.L1_GETX            1      0.00%      0.00%
system.ruby.L2Cache_Controller.MT_IIB.Unblock        17552      0.00%      0.00%
system.ruby.L2Cache_Controller.MT_IB.WB_Data         7553      0.00%      0.00%
system.ruby.L2Cache_Controller.MT_IB.WB_Data_clean         9999      0.00%      0.00%

---------- End Simulation Statistics   ----------
