
---------- Begin Simulation Statistics ----------
sim_seconds                                  1.634322                       # Number of seconds simulated
sim_ticks                                1634322136500                       # Number of ticks simulated
final_tick                               53862733502501                       # Number of ticks from beginning of simulation (restored from checkpoints and never reset)
sim_freq                                 1000000000000                       # Frequency of simulated ticks
host_inst_rate                                 125495                       # Simulator instruction rate (inst/s)
host_op_rate                                   186962                       # Simulator op (including micro ops) rate (op/s)
host_tick_rate                              283036566                       # Simulator tick rate (ticks/s)
host_mem_usage                                1792976                       # Number of bytes of host memory used
host_seconds                                  5774.24                       # Real time elapsed on the host
sim_insts                                   724639888                       # Number of instructions simulated
sim_ops                                    1079566824                       # Number of ops (including micro ops) simulated
system.voltage_domain.voltage                       1                       # Voltage in Volts
system.clk_domain.clock                          1000                       # Clock period in ticks
system.mem_ctrls.bytes_read::ruby.dir_cntrl0    374509440                       # Number of bytes read from this memory
system.mem_ctrls.bytes_read::total          374509440                       # Number of bytes read from this memory
system.mem_ctrls.bytes_written::ruby.dir_cntrl0    170209536                       # Number of bytes written to this memory
system.mem_ctrls.bytes_written::total       170209536                       # Number of bytes written to this memory
system.mem_ctrls.num_reads::ruby.dir_cntrl0      5851710                       # Number of read requests responded to by this memory
system.mem_ctrls.num_reads::total             5851710                       # Number of read requests responded to by this memory
system.mem_ctrls.num_writes::ruby.dir_cntrl0      2659524                       # Number of write requests responded to by this memory
system.mem_ctrls.num_writes::total            2659524                       # Number of write requests responded to by this memory
system.mem_ctrls.bw_read::ruby.dir_cntrl0    229152767                       # Total read bandwidth from this memory (bytes/s)
system.mem_ctrls.bw_read::total             229152767                       # Total read bandwidth from this memory (bytes/s)
system.mem_ctrls.bw_write::ruby.dir_cntrl0    104146871                       # Write bandwidth from this memory (bytes/s)
system.mem_ctrls.bw_write::total            104146871                       # Write bandwidth from this memory (bytes/s)
system.mem_ctrls.bw_total::ruby.dir_cntrl0    333299638                       # Total bandwidth to/from this memory (bytes/s)
system.mem_ctrls.bw_total::total            333299638                       # Total bandwidth to/from this memory (bytes/s)
system.mem_ctrls.readReqs                     5851710                       # Number of read requests accepted
system.mem_ctrls.writeReqs                    2659524                       # Number of write requests accepted
system.mem_ctrls.readBursts                   5851710                       # Number of DRAM read bursts, including those serviced by the write queue
system.mem_ctrls.writeBursts                  2659524                       # Number of DRAM write bursts, including those merged in the write queue
system.mem_ctrls.bytesReadDRAM              374332864                       # Total number of bytes read from DRAM
system.mem_ctrls.bytesReadWrQ                  176576                       # Total number of bytes read from write queue
system.mem_ctrls.bytesWritten               170194112                       # Total number of bytes written to DRAM
system.mem_ctrls.bytesReadSys               374509440                       # Total read bytes from the system interface side
system.mem_ctrls.bytesWrittenSys            170209536                       # Total written bytes from the system interface side
system.mem_ctrls.servicedByWrQ                   2759                       # Number of DRAM read bursts serviced by the write queue
system.mem_ctrls.mergedWrBursts                   218                       # Number of DRAM write bursts merged with an existing one
system.mem_ctrls.neitherReadNorWriteReqs            0                       # Number of requests that are neither read nor write
system.mem_ctrls.perBankRdBursts::0            366100                       # Per bank write bursts
system.mem_ctrls.perBankRdBursts::1            368111                       # Per bank write bursts
system.mem_ctrls.perBankRdBursts::2            365370                       # Per bank write bursts
system.mem_ctrls.perBankRdBursts::3            365486                       # Per bank write bursts
system.mem_ctrls.perBankRdBursts::4            366003                       # Per bank write bursts
system.mem_ctrls.perBankRdBursts::5            364346                       # Per bank write bursts
system.mem_ctrls.perBankRdBursts::6            364802                       # Per bank write bursts
system.mem_ctrls.perBankRdBursts::7            364951                       # Per bank write bursts
system.mem_ctrls.perBankRdBursts::8            364510                       # Per bank write bursts
system.mem_ctrls.perBankRdBursts::9            366208                       # Per bank write bursts
system.mem_ctrls.perBankRdBursts::10           365458                       # Per bank write bursts
system.mem_ctrls.perBankRdBursts::11           363953                       # Per bank write bursts
system.mem_ctrls.perBankRdBursts::12           365907                       # Per bank write bursts
system.mem_ctrls.perBankRdBursts::13           365264                       # Per bank write bursts
system.mem_ctrls.perBankRdBursts::14           366539                       # Per bank write bursts
system.mem_ctrls.perBankRdBursts::15           365943                       # Per bank write bursts
system.mem_ctrls.perBankWrBursts::0            166104                       # Per bank write bursts
system.mem_ctrls.perBankWrBursts::1            168294                       # Per bank write bursts
system.mem_ctrls.perBankWrBursts::2            166418                       # Per bank write bursts
system.mem_ctrls.perBankWrBursts::3            166660                       # Per bank write bursts
system.mem_ctrls.perBankWrBursts::4            166768                       # Per bank write bursts
system.mem_ctrls.perBankWrBursts::5            164965                       # Per bank write bursts
system.mem_ctrls.perBankWrBursts::6            165636                       # Per bank write bursts
system.mem_ctrls.perBankWrBursts::7            165730                       # Per bank write bursts
system.mem_ctrls.perBankWrBursts::8            165704                       # Per bank write bursts
system.mem_ctrls.perBankWrBursts::9            166122                       # Per bank write bursts
system.mem_ctrls.perBankWrBursts::10           166173                       # Per bank write bursts
system.mem_ctrls.perBankWrBursts::11           165357                       # Per bank write bursts
system.mem_ctrls.perBankWrBursts::12           166672                       # Per bank write bursts
system.mem_ctrls.perBankWrBursts::13           165786                       # Per bank write bursts
system.mem_ctrls.perBankWrBursts::14           166469                       # Per bank write bursts
system.mem_ctrls.perBankWrBursts::15           166425                       # Per bank write bursts
system.mem_ctrls.numRdRetry                         0                       # Number of times read queue was full causing retry
system.mem_ctrls.numWrRetry                         0                       # Number of times write queue was full causing retry
system.mem_ctrls.totGap                  1634322315000                       # Total gap between requests
system.mem_ctrls.readPktSize::0                     0                       # Read request sizes (log2)
system.mem_ctrls.readPktSize::1                     0                       # Read request sizes (log2)
system.mem_ctrls.readPktSize::2                     0                       # Read request sizes (log2)
system.mem_ctrls.readPktSize::3                     0                       # Read request sizes (log2)
system.mem_ctrls.readPktSize::4                     0                       # Read request sizes (log2)
system.mem_ctrls.readPktSize::5                     0                       # Read request sizes (log2)
system.mem_ctrls.readPktSize::6               5851710                       # Read request sizes (log2)
system.mem_ctrls.writePktSize::0                    0                       # Write request sizes (log2)
system.mem_ctrls.writePktSize::1                    0                       # Write request sizes (log2)
system.mem_ctrls.writePktSize::2                    0                       # Write request sizes (log2)
system.mem_ctrls.writePktSize::3                    0                       # Write request sizes (log2)
system.mem_ctrls.writePktSize::4                    0                       # Write request sizes (log2)
system.mem_ctrls.writePktSize::5                    0                       # Write request sizes (log2)
system.mem_ctrls.writePktSize::6              2659524                       # Write request sizes (log2)
system.mem_ctrls.rdQLenPdf::0                 5848001                       # What read queue length does an incoming req see
system.mem_ctrls.rdQLenPdf::1                     945                       # What read queue length does an incoming req see
system.mem_ctrls.rdQLenPdf::2                       5                       # What read queue length does an incoming req see
system.mem_ctrls.rdQLenPdf::3                       0                       # What read queue length does an incoming req see
system.mem_ctrls.rdQLenPdf::4                       0                       # What read queue length does an incoming req see
system.mem_ctrls.rdQLenPdf::5                       0                       # What read queue length does an incoming req see
system.mem_ctrls.rdQLenPdf::6                       0                       # What read queue length does an incoming req see
system.mem_ctrls.rdQLenPdf::7                       0                       # What read queue length does an incoming req see
system.mem_ctrls.rdQLenPdf::8                       0                       # What read queue length does an incoming req see
system.mem_ctrls.rdQLenPdf::9                       0                       # What read queue length does an incoming req see
system.mem_ctrls.rdQLenPdf::10                      0                       # What read queue length does an incoming req see
system.mem_ctrls.rdQLenPdf::11                      0                       # What read queue length does an incoming req see
system.mem_ctrls.rdQLenPdf::12                      0                       # What read queue length does an incoming req see
system.mem_ctrls.rdQLenPdf::13                      0                       # What read queue length does an incoming req see
system.mem_ctrls.rdQLenPdf::14                      0                       # What read queue length does an incoming req see
system.mem_ctrls.rdQLenPdf::15                      0                       # What read queue length does an incoming req see
system.mem_ctrls.rdQLenPdf::16                      0                       # What read queue length does an incoming req see
system.mem_ctrls.rdQLenPdf::17                      0                       # What read queue length does an incoming req see
system.mem_ctrls.rdQLenPdf::18                      0                       # What read queue length does an incoming req see
system.mem_ctrls.rdQLenPdf::19                      0                       # What read queue length does an incoming req see
system.mem_ctrls.rdQLenPdf::20                      0                       # What read queue length does an incoming req see
system.mem_ctrls.rdQLenPdf::21                      0                       # What read queue length does an incoming req see
system.mem_ctrls.rdQLenPdf::22                      0                       # What read queue length does an incoming req see
system.mem_ctrls.rdQLenPdf::23                      0                       # What read queue length does an incoming req see
system.mem_ctrls.rdQLenPdf::24                      0                       # What read queue length does an incoming req see
system.mem_ctrls.rdQLenPdf::25                      0                       # What read queue length does an incoming req see
system.mem_ctrls.rdQLenPdf::26                      0                       # What read queue length does an incoming req see
system.mem_ctrls.rdQLenPdf::27                      0                       # What read queue length does an incoming req see
system.mem_ctrls.rdQLenPdf::28                      0                       # What read queue length does an incoming req see
system.mem_ctrls.rdQLenPdf::29                      0                       # What read queue length does an incoming req see
system.mem_ctrls.rdQLenPdf::30                      0                       # What read queue length does an incoming req see
system.mem_ctrls.rdQLenPdf::31                      0                       # What read queue length does an incoming req see
system.mem_ctrls.wrQLenPdf::0                       1                       # What write queue length does an incoming req see
system.mem_ctrls.wrQLenPdf::1                       1                       # What write queue length does an incoming req see
system.mem_ctrls.wrQLenPdf::2                       1                       # What write queue length does an incoming req see
system.mem_ctrls.wrQLenPdf::3                       1                       # What write queue length does an incoming req see
system.mem_ctrls.wrQLenPdf::4                       1                       # What write queue length does an incoming req see
system.mem_ctrls.wrQLenPdf::5                       1                       # What write queue length does an incoming req see
system.mem_ctrls.wrQLenPdf::6                       1                       # What write queue length does an incoming req see
system.mem_ctrls.wrQLenPdf::7                       1                       # What write queue length does an incoming req see
system.mem_ctrls.wrQLenPdf::8                       1                       # What write queue length does an incoming req see
system.mem_ctrls.wrQLenPdf::9                       1                       # What write queue length does an incoming req see
system.mem_ctrls.wrQLenPdf::10                      1                       # What write queue length does an incoming req see
system.mem_ctrls.wrQLenPdf::11                      1                       # What write queue length does an incoming req see
system.mem_ctrls.wrQLenPdf::12                      1                       # What write queue length does an incoming req see
system.mem_ctrls.wrQLenPdf::13                      1                       # What write queue length does an incoming req see
system.mem_ctrls.wrQLenPdf::14                      1                       # What write queue length does an incoming req see
system.mem_ctrls.wrQLenPdf::15                  49772                       # What write queue length does an incoming req see
system.mem_ctrls.wrQLenPdf::16                  60117                       # What write queue length does an incoming req see
system.mem_ctrls.wrQLenPdf::17                 123970                       # What write queue length does an incoming req see
system.mem_ctrls.wrQLenPdf::18                 165983                       # What write queue length does an incoming req see
system.mem_ctrls.wrQLenPdf::19                 162347                       # What write queue length does an incoming req see
system.mem_ctrls.wrQLenPdf::20                 162816                       # What write queue length does an incoming req see
system.mem_ctrls.wrQLenPdf::21                 162279                       # What write queue length does an incoming req see
system.mem_ctrls.wrQLenPdf::22                 162032                       # What write queue length does an incoming req see
system.mem_ctrls.wrQLenPdf::23                 161996                       # What write queue length does an incoming req see
system.mem_ctrls.wrQLenPdf::24                 162078                       # What write queue length does an incoming req see
system.mem_ctrls.wrQLenPdf::25                 162686                       # What write queue length does an incoming req see
system.mem_ctrls.wrQLenPdf::26                 162655                       # What write queue length does an incoming req see
system.mem_ctrls.wrQLenPdf::27                 161499                       # What write queue length does an incoming req see
system.mem_ctrls.wrQLenPdf::28                 160862                       # What write queue length does an incoming req see
system.mem_ctrls.wrQLenPdf::29                 161281                       # What write queue length does an incoming req see
system.mem_ctrls.wrQLenPdf::30                 159282                       # What write queue length does an incoming req see
system.mem_ctrls.wrQLenPdf::31                 158329                       # What write queue length does an incoming req see
system.mem_ctrls.wrQLenPdf::32                 158398                       # What write queue length does an incoming req see
system.mem_ctrls.wrQLenPdf::33                    598                       # What write queue length does an incoming req see
system.mem_ctrls.wrQLenPdf::34                    165                       # What write queue length does an incoming req see
system.mem_ctrls.wrQLenPdf::35                     55                       # What write queue length does an incoming req see
system.mem_ctrls.wrQLenPdf::36                     32                       # What write queue length does an incoming req see
system.mem_ctrls.wrQLenPdf::37                     17                       # What write queue length does an incoming req see
system.mem_ctrls.wrQLenPdf::38                     12                       # What write queue length does an incoming req see
system.mem_ctrls.wrQLenPdf::39                      8                       # What write queue length does an incoming req see
system.mem_ctrls.wrQLenPdf::40                      7                       # What write queue length does an incoming req see
system.mem_ctrls.wrQLenPdf::41                      6                       # What write queue length does an incoming req see
system.mem_ctrls.wrQLenPdf::42                      4                       # What write queue length does an incoming req see
system.mem_ctrls.wrQLenPdf::43                      3                       # What write queue length does an incoming req see
system.mem_ctrls.wrQLenPdf::44                      2                       # What write queue length does an incoming req see
system.mem_ctrls.wrQLenPdf::45                      0                       # What write queue length does an incoming req see
system.mem_ctrls.wrQLenPdf::46                      0                       # What write queue length does an incoming req see
system.mem_ctrls.wrQLenPdf::47                      0                       # What write queue length does an incoming req see
system.mem_ctrls.wrQLenPdf::48                      0                       # What write queue length does an incoming req see
system.mem_ctrls.wrQLenPdf::49                      0                       # What write queue length does an incoming req see
system.mem_ctrls.wrQLenPdf::50                      0                       # What write queue length does an incoming req see
system.mem_ctrls.wrQLenPdf::51                      0                       # What write queue length does an incoming req see
system.mem_ctrls.wrQLenPdf::52                      0                       # What write queue length does an incoming req see
system.mem_ctrls.wrQLenPdf::53                      0                       # What write queue length does an incoming req see
system.mem_ctrls.wrQLenPdf::54                      0                       # What write queue length does an incoming req see
system.mem_ctrls.wrQLenPdf::55                      0                       # What write queue length does an incoming req see
system.mem_ctrls.wrQLenPdf::56                      0                       # What write queue length does an incoming req see
system.mem_ctrls.wrQLenPdf::57                      0                       # What write queue length does an incoming req see
system.mem_ctrls.wrQLenPdf::58                      0                       # What write queue length does an incoming req see
system.mem_ctrls.wrQLenPdf::59                      0                       # What write queue length does an incoming req see
system.mem_ctrls.wrQLenPdf::60                      0                       # What write queue length does an incoming req see
system.mem_ctrls.wrQLenPdf::61                      0                       # What write queue length does an incoming req see
system.mem_ctrls.wrQLenPdf::62                      0                       # What write queue length does an incoming req see
system.mem_ctrls.wrQLenPdf::63                      0                       # What write queue length does an incoming req see
system.mem_ctrls.bytesPerActivate::samples      3750372                       # Bytes accessed per row activation
system.mem_ctrls.bytesPerActivate::mean    145.192603                       # Bytes accessed per row activation
system.mem_ctrls.bytesPerActivate::gmean    88.676470                       # Bytes accessed per row activation
system.mem_ctrls.bytesPerActivate::stdev   228.025682                       # Bytes accessed per row activation
system.mem_ctrls.bytesPerActivate::0-127      3060009     81.59%     81.59% # Bytes accessed per row activation
system.mem_ctrls.bytesPerActivate::128-255       234954      6.26%     87.86% # Bytes accessed per row activation
system.mem_ctrls.bytesPerActivate::256-383        88960      2.37%     90.23% # Bytes accessed per row activation
system.mem_ctrls.bytesPerActivate::384-511        63094      1.68%     91.91% # Bytes accessed per row activation
system.mem_ctrls.bytesPerActivate::512-639        47039      1.25%     93.17% # Bytes accessed per row activation
system.mem_ctrls.bytesPerActivate::640-767        38218      1.02%     94.18% # Bytes accessed per row activation
system.mem_ctrls.bytesPerActivate::768-895        39551      1.05%     95.24% # Bytes accessed per row activation
system.mem_ctrls.bytesPerActivate::896-1023        28183      0.75%     95.99% # Bytes accessed per row activation
system.mem_ctrls.bytesPerActivate::1024-1151       150364      4.01%    100.00% # Bytes accessed per row activation
system.mem_ctrls.bytesPerActivate::total      3750372                       # Bytes accessed per row activation
system.mem_ctrls.rdPerTurnAround::samples       158120                       # Reads before turning the bus around for writes
system.mem_ctrls.rdPerTurnAround::mean      37.086131                       # Reads before turning the bus around for writes
system.mem_ctrls.rdPerTurnAround::stdev    922.964290                       # Reads before turning the bus around for writes
system.mem_ctrls.rdPerTurnAround::0-8191       158095     99.98%     99.98% # Reads before turning the bus around for writes
system.mem_ctrls.rdPerTurnAround::8192-16383            3      0.00%     99.99% # Reads before turning the bus around for writes
system.mem_ctrls.rdPerTurnAround::16384-24575            2      0.00%     99.99% # Reads before turning the bus around for writes
system.mem_ctrls.rdPerTurnAround::24576-32767            2      0.00%     99.99% # Reads before turning the bus around for writes
system.mem_ctrls.rdPerTurnAround::32768-40959            2      0.00%     99.99% # Reads before turning the bus around for writes
system.mem_ctrls.rdPerTurnAround::57344-65535           12      0.01%    100.00% # Reads before turning the bus around for writes
system.mem_ctrls.rdPerTurnAround::81920-90111            2      0.00%    100.00% # Reads before turning the bus around for writes
system.mem_ctrls.rdPerTurnAround::90112-98303            1      0.00%    100.00% # Reads before turning the bus around for writes
system.mem_ctrls.rdPerTurnAround::237568-245759            1      0.00%    100.00% # Reads before turning the bus around for writes
system.mem_ctrls.rdPerTurnAround::total        158120                       # Reads before turning the bus around for writes
system.mem_ctrls.wrPerTurnAround::samples       158120                       # Writes before turning the bus around for reads
system.mem_ctrls.wrPerTurnAround::mean      16.818132                       # Writes before turning the bus around for reads
system.mem_ctrls.wrPerTurnAround::gmean     16.780260                       # Writes before turning the bus around for reads
system.mem_ctrls.wrPerTurnAround::stdev      1.161330                       # Writes before turning the bus around for reads
system.mem_ctrls.wrPerTurnAround::16            97945     61.94%     61.94% # Writes before turning the bus around for reads
system.mem_ctrls.wrPerTurnAround::17             6975      4.41%     66.35% # Writes before turning the bus around for reads
system.mem_ctrls.wrPerTurnAround::18            42599     26.94%     93.30% # Writes before turning the bus around for reads
system.mem_ctrls.wrPerTurnAround::19             7286      4.61%     97.90% # Writes before turning the bus around for reads
system.mem_ctrls.wrPerTurnAround::20             2168      1.37%     99.27% # Writes before turning the bus around for reads
system.mem_ctrls.wrPerTurnAround::21              701      0.44%     99.72% # Writes before turning the bus around for reads
system.mem_ctrls.wrPerTurnAround::22              226      0.14%     99.86% # Writes before turning the bus around for reads
system.mem_ctrls.wrPerTurnAround::23              119      0.08%     99.94% # Writes before turning the bus around for reads
system.mem_ctrls.wrPerTurnAround::24               54      0.03%     99.97% # Writes before turning the bus around for reads
system.mem_ctrls.wrPerTurnAround::25               18      0.01%     99.98% # Writes before turning the bus around for reads
system.mem_ctrls.wrPerTurnAround::26                8      0.01%     99.99% # Writes before turning the bus around for reads
system.mem_ctrls.wrPerTurnAround::27                7      0.00%     99.99% # Writes before turning the bus around for reads
system.mem_ctrls.wrPerTurnAround::28                4      0.00%     99.99% # Writes before turning the bus around for reads
system.mem_ctrls.wrPerTurnAround::29                1      0.00%     99.99% # Writes before turning the bus around for reads
system.mem_ctrls.wrPerTurnAround::31                2      0.00%    100.00% # Writes before turning the bus around for reads
system.mem_ctrls.wrPerTurnAround::32                1      0.00%    100.00% # Writes before turning the bus around for reads
system.mem_ctrls.wrPerTurnAround::33                3      0.00%    100.00% # Writes before turning the bus around for reads
system.mem_ctrls.wrPerTurnAround::34                1      0.00%    100.00% # Writes before turning the bus around for reads
system.mem_ctrls.wrPerTurnAround::35                1      0.00%    100.00% # Writes before turning the bus around for reads
system.mem_ctrls.wrPerTurnAround::36                1      0.00%    100.00% # Writes before turning the bus around for reads
system.mem_ctrls.wrPerTurnAround::total        158120                       # Writes before turning the bus around for reads
system.mem_ctrls.totQLat                  76233915244                       # Total ticks spent queuing
system.mem_ctrls.totMemAccLat            185901746494                       # Total ticks spent from burst creation until serviced by the DRAM
system.mem_ctrls.totBusLat                29244755000                       # Total ticks spent in databus transfers
system.mem_ctrls.avgQLat                     13033.78                       # Average queueing delay per DRAM burst
system.mem_ctrls.avgBusLat                    5000.00                       # Average bus latency per DRAM burst
system.mem_ctrls.avgMemAccLat                31783.78                       # Average memory access latency per DRAM burst
system.mem_ctrls.avgRdBW                       229.04                       # Average DRAM read bandwidth in MiByte/s
system.mem_ctrls.avgWrBW                       104.14                       # Average achieved write bandwidth in MiByte/s
system.mem_ctrls.avgRdBWSys                    229.15                       # Average system read bandwidth in MiByte/s
system.mem_ctrls.avgWrBWSys                    104.15                       # Average system write bandwidth in MiByte/s
system.mem_ctrls.peakBW                      12800.00                       # Theoretical peak bandwidth in MiByte/s
system.mem_ctrls.busUtil                         2.60                       # Data bus utilization in percentage
system.mem_ctrls.busUtilRead                     1.79                       # Data bus utilization in percentage for reads
system.mem_ctrls.busUtilWrite                    0.81                       # Data bus utilization in percentage for writes
system.mem_ctrls.avgRdQLen                       1.00                       # Average read queue length when enqueuing
system.mem_ctrls.avgWrQLen                      24.95                       # Average write queue length when enqueuing
system.mem_ctrls.readRowHits                  3763237                       # Number of row buffer hits during reads
system.mem_ctrls.writeRowHits                  994620                       # Number of row buffer hits during writes
system.mem_ctrls.readRowHitRate                 64.34                       # Row buffer hit rate for reads
system.mem_ctrls.writeRowHitRate                37.40                       # Row buffer hit rate for writes
system.mem_ctrls.avgGap                     192019.43                       # Average gap between requests
system.mem_ctrls.pageHitRate                    55.92                       # Row buffer hit rate, read and write combined
system.mem_ctrls_0.actEnergy              14207553360                       # Energy for activate commands per rank (pJ)
system.mem_ctrls_0.preEnergy               7752137250                       # Energy for precharge commands per rank (pJ)
system.mem_ctrls_0.readEnergy             22876035000                       # Energy for read commands per rank (pJ)
system.mem_ctrls_0.writeEnergy             8622126000                       # Energy for write commands per rank (pJ)
system.mem_ctrls_0.refreshEnergy         106959830640                       # Energy for refresh commands per rank (pJ)
system.mem_ctrls_0.actBackEnergy         515105195535                       # Energy for active background per rank (pJ)
system.mem_ctrls_0.preBackEnergy         530711281500                       # Energy for precharge background per rank (pJ)
system.mem_ctrls_0.totalEnergy           1206234159285                       # Total energy per rank (pJ)
system.mem_ctrls_0.averagePower            736.588106                       # Core power per rank (mW)
system.mem_ctrls_0.memoryStateTime::IDLE 877838392250                       # Time in different power states
system.mem_ctrls_0.memoryStateTime::REF   54573480000                       # Time in different power states
system.mem_ctrls_0.memoryStateTime::PRE_PDN            0                       # Time in different power states
system.mem_ctrls_0.memoryStateTime::ACT  701907555250                       # Time in different power states
system.mem_ctrls_0.memoryStateTime::ACT_PDN            0                       # Time in different power states
system.mem_ctrls_1.actEnergy              14173586280                       # Energy for activate commands per rank (pJ)
system.mem_ctrls_1.preEnergy               7733603625                       # Energy for precharge commands per rank (pJ)
system.mem_ctrls_1.readEnergy             22865263200                       # Energy for read commands per rank (pJ)
system.mem_ctrls_1.writeEnergy             8610027840                       # Energy for write commands per rank (pJ)
system.mem_ctrls_1.refreshEnergy         106959830640                       # Energy for refresh commands per rank (pJ)
system.mem_ctrls_1.actBackEnergy         516189356055                       # Energy for active background per rank (pJ)
system.mem_ctrls_1.preBackEnergy         529760263500                       # Energy for precharge background per rank (pJ)
system.mem_ctrls_1.totalEnergy           1206291931140                       # Total energy per rank (pJ)
system.mem_ctrls_1.averagePower            736.623385                       # Core power per rank (mW)
system.mem_ctrls_1.memoryStateTime::IDLE 876228460750                       # Time in different power states
system.mem_ctrls_1.memoryStateTime::REF   54573480000                       # Time in different power states
system.mem_ctrls_1.memoryStateTime::PRE_PDN            0                       # Time in different power states
system.mem_ctrls_1.memoryStateTime::ACT  703516361750                       # Time in different power states
system.mem_ctrls_1.memoryStateTime::ACT_PDN            0                       # Time in different power states
system.cpu_voltage_domain.voltage                   1                       # Voltage in Volts
system.cpu_clk_domain.clock                       500                       # Clock period in ticks
system.cpu0.apic_clk_domain.clock                8000                       # Clock period in ticks
system.cpu0.numCycles                      3269063360                       # number of cpu cycles simulated
system.cpu0.numWorkItemsStarted                     0                       # number of work items this cpu started
system.cpu0.numWorkItemsCompleted                   0                       # number of work items this cpu completed
system.cpu0.kern.inst.arm                           0                       # number of arm instructions executed
system.cpu0.kern.inst.quiesce                       0                       # number of quiesce instructions executed
system.cpu0.committedInsts                    1297517                       # Number of instructions committed
system.cpu0.committedOps                      2831972                       # Number of ops (including micro ops) committed
system.cpu0.num_int_alu_accesses              2771118                       # Number of integer alu accesses
system.cpu0.num_fp_alu_accesses                     0                       # Number of float alu accesses
system.cpu0.num_func_calls                      84060                       # number of times a function call or return occured
system.cpu0.num_conditional_control_insts       186110                       # number of instructions that are conditional controls
system.cpu0.num_int_insts                     2771118                       # number of integer instructions
system.cpu0.num_fp_insts                            0                       # number of float instructions
system.cpu0.num_int_register_reads            5631282                       # number of times the integer registers were read
system.cpu0.num_int_register_writes           2295904                       # number of times the integer registers were written
system.cpu0.num_fp_register_reads                   0                       # number of times the floating registers were read
system.cpu0.num_fp_register_writes                  0                       # number of times the floating registers were written
system.cpu0.num_cc_register_reads             1556664                       # number of times the CC registers were read
system.cpu0.num_cc_register_writes             845649                       # number of times the CC registers were written
system.cpu0.num_mem_refs                       668881                       # number of memory refs
system.cpu0.num_load_insts                     412926                       # Number of load instructions
system.cpu0.num_store_insts                    255955                       # Number of store instructions
system.cpu0.num_idle_cycles              3263494358.065749                       # Number of idle cycles
system.cpu0.num_busy_cycles              5569001.934251                       # Number of busy cycles
system.cpu0.not_idle_fraction                0.001704                       # Percentage of non-idle cycles
system.cpu0.idle_fraction                    0.998296                       # Percentage of idle cycles
system.cpu0.Branches                           295654                       # Number of branches fetched
system.cpu0.op_class::No_OpClass                48828      1.72%      1.72% # Class of executed instruction
system.cpu0.op_class::IntAlu                  2092653     73.89%     75.62% # Class of executed instruction
system.cpu0.op_class::IntMult                    5338      0.19%     75.81% # Class of executed instruction
system.cpu0.op_class::IntDiv                    16275      0.57%     76.38% # Class of executed instruction
system.cpu0.op_class::FloatAdd                      0      0.00%     76.38% # Class of executed instruction
system.cpu0.op_class::FloatCmp                      0      0.00%     76.38% # Class of executed instruction
system.cpu0.op_class::FloatCvt                      0      0.00%     76.38% # Class of executed instruction
system.cpu0.op_class::FloatMult                     0      0.00%     76.38% # Class of executed instruction
system.cpu0.op_class::FloatDiv                      0      0.00%     76.38% # Class of executed instruction
system.cpu0.op_class::FloatSqrt                     0      0.00%     76.38% # Class of executed instruction
system.cpu0.op_class::SimdAdd                       0      0.00%     76.38% # Class of executed instruction
system.cpu0.op_class::SimdAddAcc                    0      0.00%     76.38% # Class of executed instruction
system.cpu0.op_class::SimdAlu                       0      0.00%     76.38% # Class of executed instruction
system.cpu0.op_class::SimdCmp                       0      0.00%     76.38% # Class of executed instruction
system.cpu0.op_class::SimdCvt                       0      0.00%     76.38% # Class of executed instruction
system.cpu0.op_class::SimdMisc                      0      0.00%     76.38% # Class of executed instruction
system.cpu0.op_class::SimdMult                      0      0.00%     76.38% # Class of executed instruction
system.cpu0.op_class::SimdMultAcc                   0      0.00%     76.38% # Class of executed instruction
system.cpu0.op_class::SimdShift                     0      0.00%     76.38% # Class of executed instruction
system.cpu0.op_class::SimdShiftAcc                  0      0.00%     76.38% # Class of executed instruction
system.cpu0.op_class::SimdSqrt                      0      0.00%     76.38% # Class of executed instruction
system.cpu0.op_class::SimdFloatAdd                  0      0.00%     76.38% # Class of executed instruction
system.cpu0.op_class::SimdFloatAlu                  0      0.00%     76.38% # Class of executed instruction
system.cpu0.op_class::SimdFloatCmp                  0      0.00%     76.38% # Class of executed instruction
system.cpu0.op_class::SimdFloatCvt                  0      0.00%     76.38% # Class of executed instruction
system.cpu0.op_class::SimdFloatDiv                  0      0.00%     76.38% # Class of executed instruction
system.cpu0.op_class::SimdFloatMisc                 0      0.00%     76.38% # Class of executed instruction
system.cpu0.op_class::SimdFloatMult                 0      0.00%     76.38% # Class of executed instruction
system.cpu0.op_class::SimdFloatMultAcc              0      0.00%     76.38% # Class of executed instruction
system.cpu0.op_class::SimdFloatSqrt                 0      0.00%     76.38% # Class of executed instruction
system.cpu0.op_class::MemRead                  412926     14.58%     90.96% # Class of executed instruction
system.cpu0.op_class::MemWrite                 255955      9.04%    100.00% # Class of executed instruction
system.cpu0.op_class::IprAccess                     0      0.00%    100.00% # Class of executed instruction
system.cpu0.op_class::InstPrefetch                  0      0.00%    100.00% # Class of executed instruction
system.cpu0.op_class::total                   2831975                       # Class of executed instruction
system.cpu1.apic_clk_domain.clock                8000                       # Clock period in ticks
system.cpu1.numCycles                      3266444412                       # number of cpu cycles simulated
system.cpu1.numWorkItemsStarted                     0                       # number of work items this cpu started
system.cpu1.numWorkItemsCompleted                   0                       # number of work items this cpu completed
system.cpu1.kern.inst.arm                           0                       # number of arm instructions executed
system.cpu1.kern.inst.quiesce                       0                       # number of quiesce instructions executed
system.cpu1.committedInsts                    3737325                       # Number of instructions committed
system.cpu1.committedOps                      7461331                       # Number of ops (including micro ops) committed
system.cpu1.num_int_alu_accesses              7328309                       # Number of integer alu accesses
system.cpu1.num_fp_alu_accesses                  1778                       # Number of float alu accesses
system.cpu1.num_func_calls                     194190                       # number of times a function call or return occured
system.cpu1.num_conditional_control_insts       631561                       # number of instructions that are conditional controls
system.cpu1.num_int_insts                     7328309                       # number of integer instructions
system.cpu1.num_fp_insts                         1778                       # number of float instructions
system.cpu1.num_int_register_reads           14572890                       # number of times the integer registers were read
system.cpu1.num_int_register_writes           5959951                       # number of times the integer registers were written
system.cpu1.num_fp_register_reads                2988                       # number of times the floating registers were read
system.cpu1.num_fp_register_writes               1416                       # number of times the floating registers were written
system.cpu1.num_cc_register_reads             4721612                       # number of times the CC registers were read
system.cpu1.num_cc_register_writes            2548008                       # number of times the CC registers were written
system.cpu1.num_mem_refs                      1686011                       # number of memory refs
system.cpu1.num_load_insts                    1095839                       # Number of load instructions
system.cpu1.num_store_insts                    590172                       # Number of store instructions
system.cpu1.num_idle_cycles              3251226739.688228                       # Number of idle cycles
system.cpu1.num_busy_cycles              15217672.311772                       # Number of busy cycles
system.cpu1.not_idle_fraction                0.004659                       # Percentage of non-idle cycles
system.cpu1.idle_fraction                    0.995341                       # Percentage of idle cycles
system.cpu1.Branches                           859719                       # Number of branches fetched
system.cpu1.op_class::No_OpClass                51004      0.68%      0.68% # Class of executed instruction
system.cpu1.op_class::IntAlu                  5699171     76.38%     77.07% # Class of executed instruction
system.cpu1.op_class::IntMult                    7168      0.10%     77.16% # Class of executed instruction
system.cpu1.op_class::IntDiv                    16722      0.22%     77.39% # Class of executed instruction
system.cpu1.op_class::FloatAdd                   1344      0.02%     77.40% # Class of executed instruction
system.cpu1.op_class::FloatCmp                      0      0.00%     77.40% # Class of executed instruction
system.cpu1.op_class::FloatCvt                      0      0.00%     77.40% # Class of executed instruction
system.cpu1.op_class::FloatMult                     0      0.00%     77.40% # Class of executed instruction
system.cpu1.op_class::FloatDiv                      0      0.00%     77.40% # Class of executed instruction
system.cpu1.op_class::FloatSqrt                     0      0.00%     77.40% # Class of executed instruction
system.cpu1.op_class::SimdAdd                       0      0.00%     77.40% # Class of executed instruction
system.cpu1.op_class::SimdAddAcc                    0      0.00%     77.40% # Class of executed instruction
system.cpu1.op_class::SimdAlu                       0      0.00%     77.40% # Class of executed instruction
system.cpu1.op_class::SimdCmp                       0      0.00%     77.40% # Class of executed instruction
system.cpu1.op_class::SimdCvt                       0      0.00%     77.40% # Class of executed instruction
system.cpu1.op_class::SimdMisc                      0      0.00%     77.40% # Class of executed instruction
system.cpu1.op_class::SimdMult                      0      0.00%     77.40% # Class of executed instruction
system.cpu1.op_class::SimdMultAcc                   0      0.00%     77.40% # Class of executed instruction
system.cpu1.op_class::SimdShift                     0      0.00%     77.40% # Class of executed instruction
system.cpu1.op_class::SimdShiftAcc                  0      0.00%     77.40% # Class of executed instruction
system.cpu1.op_class::SimdSqrt                      0      0.00%     77.40% # Class of executed instruction
system.cpu1.op_class::SimdFloatAdd                  0      0.00%     77.40% # Class of executed instruction
system.cpu1.op_class::SimdFloatAlu                  0      0.00%     77.40% # Class of executed instruction
system.cpu1.op_class::SimdFloatCmp                  0      0.00%     77.40% # Class of executed instruction
system.cpu1.op_class::SimdFloatCvt                  0      0.00%     77.40% # Class of executed instruction
system.cpu1.op_class::SimdFloatDiv                  0      0.00%     77.40% # Class of executed instruction
system.cpu1.op_class::SimdFloatMisc                 0      0.00%     77.40% # Class of executed instruction
system.cpu1.op_class::SimdFloatMult                 0      0.00%     77.40% # Class of executed instruction
system.cpu1.op_class::SimdFloatMultAcc              0      0.00%     77.40% # Class of executed instruction
system.cpu1.op_class::SimdFloatSqrt                 0      0.00%     77.40% # Class of executed instruction
system.cpu1.op_class::MemRead                 1095839     14.69%     92.09% # Class of executed instruction
system.cpu1.op_class::MemWrite                 590172      7.91%    100.00% # Class of executed instruction
system.cpu1.op_class::IprAccess                     0      0.00%    100.00% # Class of executed instruction
system.cpu1.op_class::InstPrefetch                  0      0.00%    100.00% # Class of executed instruction
system.cpu1.op_class::total                   7461420                       # Class of executed instruction
system.cpu2.apic_clk_domain.clock                8000                       # Clock period in ticks
system.cpu2.numCycles                      3271623864                       # number of cpu cycles simulated
system.cpu2.numWorkItemsStarted                     0                       # number of work items this cpu started
system.cpu2.numWorkItemsCompleted                   0                       # number of work items this cpu completed
system.cpu2.kern.inst.arm                           0                       # number of arm instructions executed
system.cpu2.kern.inst.quiesce                       0                       # number of quiesce instructions executed
system.cpu2.committedInsts                    1201867                       # Number of instructions committed
system.cpu2.committedOps                      2587299                       # Number of ops (including micro ops) committed
system.cpu2.num_int_alu_accesses              2529767                       # Number of integer alu accesses
system.cpu2.num_fp_alu_accesses                    39                       # Number of float alu accesses
system.cpu2.num_func_calls                      70708                       # number of times a function call or return occured
system.cpu2.num_conditional_control_insts       182783                       # number of instructions that are conditional controls
system.cpu2.num_int_insts                     2529767                       # number of integer instructions
system.cpu2.num_fp_insts                           39                       # number of float instructions
system.cpu2.num_int_register_reads            5148193                       # number of times the integer registers were read
system.cpu2.num_int_register_writes           2098113                       # number of times the integer registers were written
system.cpu2.num_fp_register_reads                  63                       # number of times the floating registers were read
system.cpu2.num_fp_register_writes                 31                       # number of times the floating registers were written
system.cpu2.num_cc_register_reads             1461937                       # number of times the CC registers were read
system.cpu2.num_cc_register_writes             765461                       # number of times the CC registers were written
system.cpu2.num_mem_refs                       617062                       # number of memory refs
system.cpu2.num_load_insts                     382404                       # Number of load instructions
system.cpu2.num_store_insts                    234658                       # Number of store instructions
system.cpu2.num_idle_cycles              3266448243.367478                       # Number of idle cycles
system.cpu2.num_busy_cycles              5175620.632522                       # Number of busy cycles
system.cpu2.not_idle_fraction                0.001582                       # Percentage of non-idle cycles
system.cpu2.idle_fraction                    0.998418                       # Percentage of idle cycles
system.cpu2.Branches                           276762                       # Number of branches fetched
system.cpu2.op_class::No_OpClass                49091      1.90%      1.90% # Class of executed instruction
system.cpu2.op_class::IntAlu                  1898707     73.39%     75.28% # Class of executed instruction
system.cpu2.op_class::IntMult                    5023      0.19%     75.48% # Class of executed instruction
system.cpu2.op_class::IntDiv                    17408      0.67%     76.15% # Class of executed instruction
system.cpu2.op_class::FloatAdd                     30      0.00%     76.15% # Class of executed instruction
system.cpu2.op_class::FloatCmp                      0      0.00%     76.15% # Class of executed instruction
system.cpu2.op_class::FloatCvt                      0      0.00%     76.15% # Class of executed instruction
system.cpu2.op_class::FloatMult                     0      0.00%     76.15% # Class of executed instruction
system.cpu2.op_class::FloatDiv                      0      0.00%     76.15% # Class of executed instruction
system.cpu2.op_class::FloatSqrt                     0      0.00%     76.15% # Class of executed instruction
system.cpu2.op_class::SimdAdd                       0      0.00%     76.15% # Class of executed instruction
system.cpu2.op_class::SimdAddAcc                    0      0.00%     76.15% # Class of executed instruction
system.cpu2.op_class::SimdAlu                       0      0.00%     76.15% # Class of executed instruction
system.cpu2.op_class::SimdCmp                       0      0.00%     76.15% # Class of executed instruction
system.cpu2.op_class::SimdCvt                       0      0.00%     76.15% # Class of executed instruction
system.cpu2.op_class::SimdMisc                      0      0.00%     76.15% # Class of executed instruction
system.cpu2.op_class::SimdMult                      0      0.00%     76.15% # Class of executed instruction
system.cpu2.op_class::SimdMultAcc                   0      0.00%     76.15% # Class of executed instruction
system.cpu2.op_class::SimdShift                     0      0.00%     76.15% # Class of executed instruction
system.cpu2.op_class::SimdShiftAcc                  0      0.00%     76.15% # Class of executed instruction
system.cpu2.op_class::SimdSqrt                      0      0.00%     76.15% # Class of executed instruction
system.cpu2.op_class::SimdFloatAdd                  0      0.00%     76.15% # Class of executed instruction
system.cpu2.op_class::SimdFloatAlu                  0      0.00%     76.15% # Class of executed instruction
system.cpu2.op_class::SimdFloatCmp                  0      0.00%     76.15% # Class of executed instruction
system.cpu2.op_class::SimdFloatCvt                  0      0.00%     76.15% # Class of executed instruction
system.cpu2.op_class::SimdFloatDiv                  0      0.00%     76.15% # Class of executed instruction
system.cpu2.op_class::SimdFloatMisc                 0      0.00%     76.15% # Class of executed instruction
system.cpu2.op_class::SimdFloatMult                 0      0.00%     76.15% # Class of executed instruction
system.cpu2.op_class::SimdFloatMultAcc              0      0.00%     76.15% # Class of executed instruction
system.cpu2.op_class::SimdFloatSqrt                 0      0.00%     76.15% # Class of executed instruction
system.cpu2.op_class::MemRead                  382404     14.78%     90.93% # Class of executed instruction
system.cpu2.op_class::MemWrite                 234658      9.07%    100.00% # Class of executed instruction
system.cpu2.op_class::IprAccess                     0      0.00%    100.00% # Class of executed instruction
system.cpu2.op_class::InstPrefetch                  0      0.00%    100.00% # Class of executed instruction
system.cpu2.op_class::total                   2587321                       # Class of executed instruction
system.cpu3.apic_clk_domain.clock                8000                       # Clock period in ticks
system.cpu3.numCycles                      3270588530                       # number of cpu cycles simulated
system.cpu3.numWorkItemsStarted                     0                       # number of work items this cpu started
system.cpu3.numWorkItemsCompleted                   0                       # number of work items this cpu completed
system.cpu3.kern.inst.arm                           0                       # number of arm instructions executed
system.cpu3.kern.inst.quiesce                       0                       # number of quiesce instructions executed
system.cpu3.committedInsts                  717055623                       # Number of instructions committed
system.cpu3.committedOps                   1064206074                       # Number of ops (including micro ops) committed
system.cpu3.num_int_alu_accesses            463717702                       # Number of integer alu accesses
system.cpu3.num_fp_alu_accesses             708837843                       # Number of float alu accesses
system.cpu3.num_func_calls                     893675                       # number of times a function call or return occured
system.cpu3.num_conditional_control_insts     10822256                       # number of instructions that are conditional controls
system.cpu3.num_int_insts                   463717702                       # number of integer instructions
system.cpu3.num_fp_insts                    708837843                       # number of float instructions
system.cpu3.num_int_register_reads          971516759                       # number of times the integer registers were read
system.cpu3.num_int_register_writes         343632590                       # number of times the integer registers were written
system.cpu3.num_fp_register_reads          1593836311                       # number of times the floating registers were read
system.cpu3.num_fp_register_writes          654311799                       # number of times the floating registers were written
system.cpu3.num_cc_register_reads           111565080                       # number of times the CC registers were read
system.cpu3.num_cc_register_writes          201581170                       # number of times the CC registers were written
system.cpu3.num_mem_refs                    129297128                       # number of memory refs
system.cpu3.num_load_insts                   75409394                       # Number of load instructions
system.cpu3.num_store_insts                  53887734                       # Number of store instructions
system.cpu3.num_idle_cycles              10589750.255215                       # Number of idle cycles
system.cpu3.num_busy_cycles              3259998779.744785                       # Number of busy cycles
system.cpu3.not_idle_fraction                0.996762                       # Percentage of non-idle cycles
system.cpu3.idle_fraction                    0.003238                       # Percentage of idle cycles
system.cpu3.Branches                         12005686                       # Number of branches fetched
system.cpu3.op_class::No_OpClass               312667      0.03%      0.03% # Class of executed instruction
system.cpu3.op_class::IntAlu                431206376     40.52%     40.55% # Class of executed instruction
system.cpu3.op_class::IntMult                   87420      0.01%     40.56% # Class of executed instruction
system.cpu3.op_class::IntDiv                     2210      0.00%     40.56% # Class of executed instruction
system.cpu3.op_class::FloatAdd              503316796     47.29%     87.85% # Class of executed instruction
system.cpu3.op_class::FloatCmp                      0      0.00%     87.85% # Class of executed instruction
system.cpu3.op_class::FloatCvt                      0      0.00%     87.85% # Class of executed instruction
system.cpu3.op_class::FloatMult                     0      0.00%     87.85% # Class of executed instruction
system.cpu3.op_class::FloatDiv                      0      0.00%     87.85% # Class of executed instruction
system.cpu3.op_class::FloatSqrt                     0      0.00%     87.85% # Class of executed instruction
system.cpu3.op_class::SimdAdd                       0      0.00%     87.85% # Class of executed instruction
system.cpu3.op_class::SimdAddAcc                    0      0.00%     87.85% # Class of executed instruction
system.cpu3.op_class::SimdAlu                       0      0.00%     87.85% # Class of executed instruction
system.cpu3.op_class::SimdCmp                       0      0.00%     87.85% # Class of executed instruction
system.cpu3.op_class::SimdCvt                       0      0.00%     87.85% # Class of executed instruction
system.cpu3.op_class::SimdMisc                      0      0.00%     87.85% # Class of executed instruction
system.cpu3.op_class::SimdMult                      0      0.00%     87.85% # Class of executed instruction
system.cpu3.op_class::SimdMultAcc                   0      0.00%     87.85% # Class of executed instruction
system.cpu3.op_class::SimdShift                     0      0.00%     87.85% # Class of executed instruction
system.cpu3.op_class::SimdShiftAcc                  0      0.00%     87.85% # Class of executed instruction
system.cpu3.op_class::SimdSqrt                      0      0.00%     87.85% # Class of executed instruction
system.cpu3.op_class::SimdFloatAdd                  0      0.00%     87.85% # Class of executed instruction
system.cpu3.op_class::SimdFloatAlu                  0      0.00%     87.85% # Class of executed instruction
system.cpu3.op_class::SimdFloatCmp                  0      0.00%     87.85% # Class of executed instruction
system.cpu3.op_class::SimdFloatCvt                  0      0.00%     87.85% # Class of executed instruction
system.cpu3.op_class::SimdFloatDiv                  0      0.00%     87.85% # Class of executed instruction
system.cpu3.op_class::SimdFloatMisc                 0      0.00%     87.85% # Class of executed instruction
system.cpu3.op_class::SimdFloatMult                 0      0.00%     87.85% # Class of executed instruction
system.cpu3.op_class::SimdFloatMultAcc              0      0.00%     87.85% # Class of executed instruction
system.cpu3.op_class::SimdFloatSqrt                 0      0.00%     87.85% # Class of executed instruction
system.cpu3.op_class::MemRead                75409394      7.09%     94.94% # Class of executed instruction
system.cpu3.op_class::MemWrite               53887734      5.06%    100.00% # Class of executed instruction
system.cpu3.op_class::IprAccess                     0      0.00%    100.00% # Class of executed instruction
system.cpu3.op_class::InstPrefetch                  0      0.00%    100.00% # Class of executed instruction
system.cpu3.op_class::total                1064222597                       # Class of executed instruction
system.iobus.trans_dist::ReadReq                   83                       # Transaction distribution
system.iobus.trans_dist::ReadResp                  83                       # Transaction distribution
system.iobus.trans_dist::WriteReq                1700                       # Transaction distribution
system.iobus.trans_dist::WriteResp               1700                       # Transaction distribution
system.iobus.trans_dist::MessageReq                13                       # Transaction distribution
system.iobus.trans_dist::MessageResp               13                       # Transaction distribution
system.iobus.pkt_count_system.pc.south_bridge.io_apic.int_master::system.ruby.l1_cntrl0.sequencer.pio-slave-port            2                       # Packet count per connected master and slave (bytes)
system.iobus.pkt_count_system.pc.south_bridge.io_apic.int_master::system.ruby.l1_cntrl1.sequencer.pio-slave-port            4                       # Packet count per connected master and slave (bytes)
system.iobus.pkt_count_system.pc.south_bridge.io_apic.int_master::system.ruby.l1_cntrl2.sequencer.pio-slave-port            2                       # Packet count per connected master and slave (bytes)
system.iobus.pkt_count_system.pc.south_bridge.io_apic.int_master::system.ruby.l1_cntrl3.sequencer.pio-slave-port            2                       # Packet count per connected master and slave (bytes)
system.iobus.pkt_count_system.pc.south_bridge.io_apic.int_master::total           10                       # Packet count per connected master and slave (bytes)
system.iobus.pkt_count_system.ruby.l1_cntrl0.sequencer.mem-master-port::system.pc.south_bridge.io_apic.pio            6                       # Packet count per connected master and slave (bytes)
system.iobus.pkt_count_system.ruby.l1_cntrl0.sequencer.mem-master-port::system.pc.com_1.pio           22                       # Packet count per connected master and slave (bytes)
system.iobus.pkt_count_system.ruby.l1_cntrl0.sequencer.mem-master-port::system.ruby.l1_cntrl0.sequencer.pio-slave-port          830                       # Packet count per connected master and slave (bytes)
system.iobus.pkt_count_system.ruby.l1_cntrl0.sequencer.mem-master-port::system.ruby.l1_cntrl1.sequencer.pio-slave-port            2                       # Packet count per connected master and slave (bytes)
system.iobus.pkt_count_system.ruby.l1_cntrl0.sequencer.mem-master-port::total          860                       # Packet count per connected master and slave (bytes)
system.iobus.pkt_count_system.ruby.l1_cntrl1.sequencer.mem-master-port::system.pc.south_bridge.io_apic.pio           14                       # Packet count per connected master and slave (bytes)
system.iobus.pkt_count_system.ruby.l1_cntrl1.sequencer.mem-master-port::system.pc.com_1.pio          162                       # Packet count per connected master and slave (bytes)
system.iobus.pkt_count_system.ruby.l1_cntrl1.sequencer.mem-master-port::system.ruby.l1_cntrl0.sequencer.pio-slave-port            2                       # Packet count per connected master and slave (bytes)
system.iobus.pkt_count_system.ruby.l1_cntrl1.sequencer.mem-master-port::system.ruby.l1_cntrl1.sequencer.pio-slave-port          844                       # Packet count per connected master and slave (bytes)
system.iobus.pkt_count_system.ruby.l1_cntrl1.sequencer.mem-master-port::system.ruby.l1_cntrl2.sequencer.pio-slave-port            2                       # Packet count per connected master and slave (bytes)
system.iobus.pkt_count_system.ruby.l1_cntrl1.sequencer.mem-master-port::system.ruby.l1_cntrl3.sequencer.pio-slave-port            2                       # Packet count per connected master and slave (bytes)
system.iobus.pkt_count_system.ruby.l1_cntrl1.sequencer.mem-master-port::total         1026                       # Packet count per connected master and slave (bytes)
system.iobus.pkt_count_system.ruby.l1_cntrl2.sequencer.mem-master-port::system.pc.south_bridge.io_apic.pio            8                       # Packet count per connected master and slave (bytes)
system.iobus.pkt_count_system.ruby.l1_cntrl2.sequencer.mem-master-port::system.ruby.l1_cntrl2.sequencer.pio-slave-port          830                       # Packet count per connected master and slave (bytes)
system.iobus.pkt_count_system.ruby.l1_cntrl2.sequencer.mem-master-port::system.ruby.l1_cntrl3.sequencer.pio-slave-port            2                       # Packet count per connected master and slave (bytes)
system.iobus.pkt_count_system.ruby.l1_cntrl2.sequencer.mem-master-port::total          840                       # Packet count per connected master and slave (bytes)
system.iobus.pkt_count_system.ruby.l1_cntrl3.sequencer.mem-master-port::system.pc.south_bridge.io_apic.pio            8                       # Packet count per connected master and slave (bytes)
system.iobus.pkt_count_system.ruby.l1_cntrl3.sequencer.mem-master-port::system.ruby.l1_cntrl0.sequencer.pio-slave-port            2                       # Packet count per connected master and slave (bytes)
system.iobus.pkt_count_system.ruby.l1_cntrl3.sequencer.mem-master-port::system.ruby.l1_cntrl1.sequencer.pio-slave-port            2                       # Packet count per connected master and slave (bytes)
system.iobus.pkt_count_system.ruby.l1_cntrl3.sequencer.mem-master-port::system.ruby.l1_cntrl2.sequencer.pio-slave-port            2                       # Packet count per connected master and slave (bytes)
system.iobus.pkt_count_system.ruby.l1_cntrl3.sequencer.mem-master-port::system.ruby.l1_cntrl3.sequencer.pio-slave-port          842                       # Packet count per connected master and slave (bytes)
system.iobus.pkt_count_system.ruby.l1_cntrl3.sequencer.mem-master-port::total          856                       # Packet count per connected master and slave (bytes)
system.iobus.pkt_count::total                    3592                       # Packet count per connected master and slave (bytes)
system.iobus.pkt_size_system.pc.south_bridge.io_apic.int_master::system.ruby.l1_cntrl0.sequencer.pio-slave-port            4                       # Cumulative packet size per connected master and slave (bytes)
system.iobus.pkt_size_system.pc.south_bridge.io_apic.int_master::system.ruby.l1_cntrl1.sequencer.pio-slave-port            8                       # Cumulative packet size per connected master and slave (bytes)
system.iobus.pkt_size_system.pc.south_bridge.io_apic.int_master::system.ruby.l1_cntrl2.sequencer.pio-slave-port            4                       # Cumulative packet size per connected master and slave (bytes)
system.iobus.pkt_size_system.pc.south_bridge.io_apic.int_master::system.ruby.l1_cntrl3.sequencer.pio-slave-port            4                       # Cumulative packet size per connected master and slave (bytes)
system.iobus.pkt_size_system.pc.south_bridge.io_apic.int_master::total           20                       # Cumulative packet size per connected master and slave (bytes)
system.iobus.pkt_size_system.ruby.l1_cntrl0.sequencer.mem-master-port::system.pc.south_bridge.io_apic.pio           12                       # Cumulative packet size per connected master and slave (bytes)
system.iobus.pkt_size_system.ruby.l1_cntrl0.sequencer.mem-master-port::system.pc.com_1.pio           11                       # Cumulative packet size per connected master and slave (bytes)
system.iobus.pkt_size_system.ruby.l1_cntrl0.sequencer.mem-master-port::system.ruby.l1_cntrl0.sequencer.pio-slave-port         1660                       # Cumulative packet size per connected master and slave (bytes)
system.iobus.pkt_size_system.ruby.l1_cntrl0.sequencer.mem-master-port::system.ruby.l1_cntrl1.sequencer.pio-slave-port            4                       # Cumulative packet size per connected master and slave (bytes)
system.iobus.pkt_size_system.ruby.l1_cntrl0.sequencer.mem-master-port::total         1687                       # Cumulative packet size per connected master and slave (bytes)
system.iobus.pkt_size_system.ruby.l1_cntrl1.sequencer.mem-master-port::system.pc.south_bridge.io_apic.pio           28                       # Cumulative packet size per connected master and slave (bytes)
system.iobus.pkt_size_system.ruby.l1_cntrl1.sequencer.mem-master-port::system.pc.com_1.pio           81                       # Cumulative packet size per connected master and slave (bytes)
system.iobus.pkt_size_system.ruby.l1_cntrl1.sequencer.mem-master-port::system.ruby.l1_cntrl0.sequencer.pio-slave-port            4                       # Cumulative packet size per connected master and slave (bytes)
system.iobus.pkt_size_system.ruby.l1_cntrl1.sequencer.mem-master-port::system.ruby.l1_cntrl1.sequencer.pio-slave-port         1688                       # Cumulative packet size per connected master and slave (bytes)
system.iobus.pkt_size_system.ruby.l1_cntrl1.sequencer.mem-master-port::system.ruby.l1_cntrl2.sequencer.pio-slave-port            4                       # Cumulative packet size per connected master and slave (bytes)
system.iobus.pkt_size_system.ruby.l1_cntrl1.sequencer.mem-master-port::system.ruby.l1_cntrl3.sequencer.pio-slave-port            4                       # Cumulative packet size per connected master and slave (bytes)
system.iobus.pkt_size_system.ruby.l1_cntrl1.sequencer.mem-master-port::total         1809                       # Cumulative packet size per connected master and slave (bytes)
system.iobus.pkt_size_system.ruby.l1_cntrl2.sequencer.mem-master-port::system.pc.south_bridge.io_apic.pio           16                       # Cumulative packet size per connected master and slave (bytes)
system.iobus.pkt_size_system.ruby.l1_cntrl2.sequencer.mem-master-port::system.ruby.l1_cntrl2.sequencer.pio-slave-port         1660                       # Cumulative packet size per connected master and slave (bytes)
system.iobus.pkt_size_system.ruby.l1_cntrl2.sequencer.mem-master-port::system.ruby.l1_cntrl3.sequencer.pio-slave-port            4                       # Cumulative packet size per connected master and slave (bytes)
system.iobus.pkt_size_system.ruby.l1_cntrl2.sequencer.mem-master-port::total         1680                       # Cumulative packet size per connected master and slave (bytes)
system.iobus.pkt_size_system.ruby.l1_cntrl3.sequencer.mem-master-port::system.pc.south_bridge.io_apic.pio           16                       # Cumulative packet size per connected master and slave (bytes)
system.iobus.pkt_size_system.ruby.l1_cntrl3.sequencer.mem-master-port::system.ruby.l1_cntrl0.sequencer.pio-slave-port            4                       # Cumulative packet size per connected master and slave (bytes)
system.iobus.pkt_size_system.ruby.l1_cntrl3.sequencer.mem-master-port::system.ruby.l1_cntrl1.sequencer.pio-slave-port            4                       # Cumulative packet size per connected master and slave (bytes)
system.iobus.pkt_size_system.ruby.l1_cntrl3.sequencer.mem-master-port::system.ruby.l1_cntrl2.sequencer.pio-slave-port            4                       # Cumulative packet size per connected master and slave (bytes)
system.iobus.pkt_size_system.ruby.l1_cntrl3.sequencer.mem-master-port::system.ruby.l1_cntrl3.sequencer.pio-slave-port         1684                       # Cumulative packet size per connected master and slave (bytes)
system.iobus.pkt_size_system.ruby.l1_cntrl3.sequencer.mem-master-port::total         1712                       # Cumulative packet size per connected master and slave (bytes)
system.iobus.pkt_size::total                     6908                       # Cumulative packet size per connected master and slave (bytes)
system.iobus.reqLayer8.occupancy                32496                       # Layer occupancy (ticks)
system.iobus.reqLayer8.utilization                0.0                       # Layer utilization (%)
system.iobus.reqLayer12.occupancy              119000                       # Layer occupancy (ticks)
system.iobus.reqLayer12.utilization               0.0                       # Layer utilization (%)
system.iobus.reqLayer17.occupancy             1041500                       # Layer occupancy (ticks)
system.iobus.reqLayer17.utilization               0.0                       # Layer utilization (%)
system.iobus.reqLayer18.occupancy             1056498                       # Layer occupancy (ticks)
system.iobus.reqLayer18.utilization               0.0                       # Layer utilization (%)
system.iobus.reqLayer19.occupancy             1041500                       # Layer occupancy (ticks)
system.iobus.reqLayer19.utilization               0.0                       # Layer utilization (%)
system.iobus.reqLayer20.occupancy             1047298                       # Layer occupancy (ticks)
system.iobus.reqLayer20.utilization               0.0                       # Layer utilization (%)
system.iobus.respLayer0.occupancy                7000                       # Layer occupancy (ticks)
system.iobus.respLayer0.utilization               0.0                       # Layer utilization (%)
system.iobus.respLayer2.occupancy              647500                       # Layer occupancy (ticks)
system.iobus.respLayer2.utilization               0.0                       # Layer utilization (%)
system.iobus.respLayer4.occupancy              789000                       # Layer occupancy (ticks)
system.iobus.respLayer4.utilization               0.0                       # Layer utilization (%)
system.iobus.respLayer6.occupancy              630500                       # Layer occupancy (ticks)
system.iobus.respLayer6.utilization               0.0                       # Layer utilization (%)
system.iobus.respLayer8.occupancy              644000                       # Layer occupancy (ticks)
system.iobus.respLayer8.utilization               0.0                       # Layer utilization (%)
system.pc.south_bridge.ide.disks.dma_read_full_pages            0                       # Number of full page size DMA reads (not PRD).
system.pc.south_bridge.ide.disks.dma_read_bytes            0                       # Number of bytes transfered via DMA reads (not PRD).
system.pc.south_bridge.ide.disks.dma_read_txs            0                       # Number of DMA read transactions (not PRD).
system.pc.south_bridge.ide.disks.dma_write_full_pages            0                       # Number of full page size DMA writes.
system.pc.south_bridge.ide.disks.dma_write_bytes            0                       # Number of bytes transfered via DMA writes.
system.pc.south_bridge.ide.disks.dma_write_txs            0                       # Number of DMA write transactions.
system.ruby.clk_domain.clock                      500                       # Clock period in ticks
system.ruby.outstanding_req_hist_seqr::bucket_size            1                      
system.ruby.outstanding_req_hist_seqr::max_bucket            9                      
system.ruby.outstanding_req_hist_seqr::samples   1225163529                      
system.ruby.outstanding_req_hist_seqr::mean     1.000000                      
system.ruby.outstanding_req_hist_seqr::gmean     1.000000                      
system.ruby.outstanding_req_hist_seqr::stdev     0.000429                      
system.ruby.outstanding_req_hist_seqr    |           0      0.00%      0.00% |  1225163303    100.00%    100.00% |         226      0.00%    100.00% |           0      0.00%    100.00% |           0      0.00%    100.00% |           0      0.00%    100.00% |           0      0.00%    100.00% |           0      0.00%    100.00% |           0      0.00%    100.00% |           0      0.00%    100.00%
system.ruby.outstanding_req_hist_seqr::total   1225163529                      
system.ruby.latency_hist_seqr::bucket_size          256                      
system.ruby.latency_hist_seqr::max_bucket         2559                      
system.ruby.latency_hist_seqr::samples     1225163529                      
system.ruby.latency_hist_seqr::mean          1.680166                      
system.ruby.latency_hist_seqr::gmean         1.048075                      
system.ruby.latency_hist_seqr::stdev         9.741024                      
system.ruby.latency_hist_seqr            |  1224974497     99.98%     99.98% |      113523      0.01%     99.99% |       72287      0.01%    100.00% |        2165      0.00%    100.00% |         637      0.00%    100.00% |         224      0.00%    100.00% |         150      0.00%    100.00% |          23      0.00%    100.00% |          20      0.00%    100.00% |           3      0.00%    100.00%
system.ruby.latency_hist_seqr::total       1225163529                      
system.ruby.hit_latency_hist_seqr::bucket_size            2                      
system.ruby.hit_latency_hist_seqr::max_bucket           19                      
system.ruby.hit_latency_hist_seqr::samples   1219254022                      
system.ruby.hit_latency_hist_seqr::mean      1.101342                      
system.ruby.hit_latency_hist_seqr::gmean     1.024598                      
system.ruby.hit_latency_hist_seqr::stdev     1.001574                      
system.ruby.hit_latency_hist_seqr        |  1206897841     98.99%     98.99% |           0      0.00%     98.99% |           0      0.00%     98.99% |           0      0.00%     98.99% |           0      0.00%     98.99% |    12356181      1.01%    100.00% |           0      0.00%    100.00% |           0      0.00%    100.00% |           0      0.00%    100.00% |           0      0.00%    100.00%
system.ruby.hit_latency_hist_seqr::total   1219254022                      
[...]
system.ruby.L1Cache_Controller.O.Trigger_L2_to_L1D::total         5745                      
system.ruby.L1Cache_Controller.O.Trigger_L2_to_L1I |        2363      8.03%      8.03% |        6897     23.43%     31.45% |        7436     25.26%     56.71% |       12743     43.29%    100.00%
system.ruby.L1Cache_Controller.O.Trigger_L2_to_L1I::total        29439                      
system.ruby.L1Cache_Controller.O.Other_GETX |        2514     23.14%     23.14% |        3712     34.16%     57.30% |        2456     22.60%     79.91% |        2183     20.09%    100.00%
system.ruby.L1Cache_Controller.O.Other_GETX::total        10865                      
system.ruby.L1Cache_Controller.O.Other_GETS |        1520     10.24%     10.24% |        6247     42.10%     52.35% |        3177     21.41%     73.76% |        3894     26.24%    100.00%
system.ruby.L1Cache_Controller.O.Other_GETS::total        14838                      
system.ruby.L1Cache_Controller.M.Load    |       97801      0.29%      0.29% |      168760      0.50%      0.79% |       63584      0.19%      0.98% |    33521089     99.02%    100.00%
system.ruby.L1Cache_Controller.M.Load::total     33851234                      
system.ruby.L1Cache_Controller.M.Ifetch  |     1469990      0.15%      0.15% |     3904530      0.39%      0.53% |       21408      0.00%      0.53% |  1006128334     99.47%    100.00%
system.ruby.L1Cache_Controller.M.Ifetch::total   1011524262                      
system.ruby.L1Cache_Controller.M.Store   |        2590      4.84%      4.84% |       19415     36.25%     41.09% |        1222      2.28%     43.37% |       30326     56.63%    100.00%
system.ruby.L1Cache_Controller.M.Store::total        53553                      
system.ruby.L1Cache_Controller.M.L2_Replacement |           6      0.00%      0.00% |        1055      0.03%      0.03% |           0      0.00%      0.03% |     3154446     99.97%    100.00%
system.ruby.L1Cache_Controller.M.L2_Replacement::total      3155507                      
system.ruby.L1Cache_Controller.M.L1_to_L2 |       10113      0.19%      0.19% |        8804      0.16%      0.35% |        1872      0.03%      0.38% |     5413737     99.62%    100.00%
system.ruby.L1Cache_Controller.M.L1_to_L2::total      5434526                      
system.ruby.L1Cache_Controller.M.Trigger_L2_to_L1D |        1650      0.07%      0.07% |        2636      0.12%      0.19% |         307      0.01%      0.20% |     2250966     99.80%    100.00%
system.ruby.L1Cache_Controller.M.Trigger_L2_to_L1D::total      2255559                      
system.ruby.L1Cache_Controller.M.Trigger_L2_to_L1I |        4448     70.15%     70.15% |         688     10.85%     81.00% |         137      2.16%     83.16% |        1068     16.84%    100.00%
system.ruby.L1Cache_Controller.M.Trigger_L2_to_L1I::total         6341                      
system.ruby.L1Cache_Controller.M.Other_GETX |         852     37.35%     37.35% |         126      5.52%     42.88% |         296     12.98%     55.85% |        1007     44.15%    100.00%
system.ruby.L1Cache_Controller.M.Other_GETX::total         2281                      
system.ruby.L1Cache_Controller.M.Other_GETS |        3667     21.39%     21.39% |        6760     39.42%     60.81% |        3382     19.72%     80.53% |        3338     19.47%    100.00%
system.ruby.L1Cache_Controller.M.Other_GETS::total        17147                      
system.ruby.L1Cache_Controller.M.Merged_GETS |          61     82.43%     82.43% |           7      9.46%     91.89% |           4      5.41%     97.30% |           2      2.70%    100.00%
system.ruby.L1Cache_Controller.M.Merged_GETS::total           74                      
system.ruby.L1Cache_Controller.MM.Load   |      665557      2.33%      2.33% |     2578061      9.03%     11.36% |      321769      1.13%     12.49% |    24981817     87.51%    100.00%
system.ruby.L1Cache_Controller.MM.Load::total     28547204                      
system.ruby.L1Cache_Controller.MM.Store  |      725212      0.97%      0.97% |     2368235      3.16%      4.13% |      367003      0.49%      4.62% |    71369728     95.38%    100.00%
system.ruby.L1Cache_Controller.MM.Store::total     74830178                      
system.ruby.L1Cache_Controller.MM.L2_Replacement |          12      0.00%      0.00% |        7992      0.30%      0.30% |           0      0.00%      0.30% |     2660943     99.70%    100.00%
system.ruby.L1Cache_Controller.MM.L2_Replacement::total      2668947                      
system.ruby.L1Cache_Controller.MM.L1_to_L2 |       15798      0.12%      0.12% |      132117      1.03%      1.16% |        5021      0.04%      1.20% |    12631403     98.80%    100.00%
system.ruby.L1Cache_Controller.MM.L1_to_L2::total     12784339                      
system.ruby.L1Cache_Controller.MM.Trigger_L2_to_L1D |        5846      0.06%      0.06% |      102529      1.02%      1.08% |        1712      0.02%      1.10% |     9937005     98.90%    100.00%
system.ruby.L1Cache_Controller.MM.Trigger_L2_to_L1D::total     10047092                      
system.ruby.L1Cache_Controller.MM.Other_GETX |        3161     24.68%     24.68% |        2231     17.42%     42.10% |        2541     19.84%     61.94% |        4874     38.06%    100.00%
system.ruby.L1Cache_Controller.MM.Other_GETX::total        12807                      
system.ruby.L1Cache_Controller.MM.Other_GETS |        8609     24.29%     24.29% |        4423     12.48%     36.77% |        2744      7.74%     44.52% |       19662     55.48%    100.00%
system.ruby.L1Cache_Controller.MM.Other_GETS::total        35438                      
system.ruby.L1Cache_Controller.MM.Merged_GETS |         117     43.66%     43.66% |          13      4.85%     48.51% |          73     27.24%     75.75% |          65     24.25%    100.00%
system.ruby.L1Cache_Controller.MM.Merged_GETS::total          268                      
system.ruby.L1Cache_Controller.SR.Load   |        2524      3.36%      3.36% |        5508      7.34%     10.70% |        1817      2.42%     13.12% |       65211     86.88%    100.00%
system.ruby.L1Cache_Controller.SR.Load::total        75060                      
system.ruby.L1Cache_Controller.SR.Ifetch |       26250     27.32%     27.32% |       26076     27.14%     54.47% |       10281     10.70%     65.17% |       33463     34.83%    100.00%
system.ruby.L1Cache_Controller.SR.Ifetch::total        96070                      
system.ruby.L1Cache_Controller.SR.Store  |          18      6.57%      6.57% |          53     19.34%     25.91% |           6      2.19%     28.10% |         197     71.90%    100.00%
system.ruby.L1Cache_Controller.SR.Store::total          274                      
system.ruby.L1Cache_Controller.OR.Load   |         624     10.91%     10.91% |        1775     31.05%     41.96% |        1015     17.75%     59.72% |        2303     40.28%    100.00%
system.ruby.L1Cache_Controller.OR.Load::total         5717                      
system.ruby.L1Cache_Controller.OR.Ifetch |        2363      8.03%      8.03% |        6897     23.43%     31.45% |        7436     25.26%     56.71% |       12743     43.29%    100.00%
system.ruby.L1Cache_Controller.OR.Ifetch::total        29439                      
system.ruby.L1Cache_Controller.OR.Store  |           4     14.29%     14.29% |          16     57.14%     71.43% |           3     10.71%     82.14% |           5     17.86%    100.00%
system.ruby.L1Cache_Controller.OR.Store::total           28                      
system.ruby.L1Cache_Controller.MR.Load   |        1077      0.05%      0.05% |        1691      0.08%      0.12% |         298      0.01%      0.14% |     2250470     99.86%    100.00%
system.ruby.L1Cache_Controller.MR.Load::total      2253536                      
system.ruby.L1Cache_Controller.MR.Ifetch |        4448     70.15%     70.15% |         688     10.85%     81.00% |         137      2.16%     83.16% |        1068     16.84%    100.00%
system.ruby.L1Cache_Controller.MR.Ifetch::total         6341                      
system.ruby.L1Cache_Controller.MR.Store  |         573     28.32%     28.32% |         945     46.71%     75.04% |           9      0.44%     75.48% |         496     24.52%    100.00%
system.ruby.L1Cache_Controller.MR.Store::total         2023                      
system.ruby.L1Cache_Controller.MMR.Load  |        3701      0.09%      0.09% |       68929      1.71%      1.80% |         275      0.01%      1.81% |     3959276     98.19%    100.00%
system.ruby.L1Cache_Controller.MMR.Load::total      4032181                      
system.ruby.L1Cache_Controller.MMR.Store |        2145      0.04%      0.04% |       33600      0.56%      0.59% |        1437      0.02%      0.62% |     5977729     99.38%    100.00%
system.ruby.L1Cache_Controller.MMR.Store::total      6014911                      
system.ruby.L1Cache_Controller.IM.Ack    |       27719      0.34%      0.34% |       21968      0.27%      0.62% |        9329      0.12%      0.73% |     7980556     99.27%    100.00%
system.ruby.L1Cache_Controller.IM.Ack::total      8039572                      
system.ruby.L1Cache_Controller.IM.Data   |        1555     39.63%     39.63% |         767     19.55%     59.17% |         716     18.25%     77.42% |         886     22.58%    100.00%
system.ruby.L1Cache_Controller.IM.Data::total         3924                      
system.ruby.L1Cache_Controller.IM.Exclusive_Data |        9466      0.35%      0.35% |       11320      0.42%      0.77% |        3601      0.13%      0.91% |     2663733     99.09%    100.00%
system.ruby.L1Cache_Controller.IM.Exclusive_Data::total      2688120                      
system.ruby.L1Cache_Controller.SM.Ack    |        3131     42.56%     42.56% |        1323     17.98%     60.54% |         576      7.83%     68.37% |        2327     31.63%    100.00%
system.ruby.L1Cache_Controller.SM.Ack::total         7357                      
system.ruby.L1Cache_Controller.SM.Data   |        2579     35.80%     35.80% |        1413     19.62%     55.42% |         884     12.27%     67.69% |        2327     32.31%    100.00%
system.ruby.L1Cache_Controller.SM.Data::total         7203                      
system.ruby.L1Cache_Controller.OM.Ack    |         312     32.10%     32.10% |         360     37.04%     69.14% |         120     12.35%     81.48% |         180     18.52%    100.00%
system.ruby.L1Cache_Controller.OM.Ack::total          972                      
system.ruby.L1Cache_Controller.OM.All_acks_no_sharers |         104     32.10%     32.10% |         120     37.04%     69.14% |          40     12.35%     81.48% |          60     18.52%    100.00%
system.ruby.L1Cache_Controller.OM.All_acks_no_sharers::total          324                      
system.ruby.L1Cache_Controller.ISM.Ack   |        3692     31.78%     31.78% |        2390     20.57%     52.35% |        2228     19.18%     71.53% |        3307     28.47%    100.00%
system.ruby.L1Cache_Controller.ISM.Ack::total        11617                      
system.ruby.L1Cache_Controller.ISM.All_acks_no_sharers |        4134     37.15%     37.15% |        2180     19.59%     56.74% |        1600     14.38%     71.12% |        3213     28.88%    100.00%
system.ruby.L1Cache_Controller.ISM.All_acks_no_sharers::total        11127                      
system.ruby.L1Cache_Controller.M_W.Load  |          38     17.51%     17.51% |          42     19.35%     36.87% |          29     13.36%     50.23% |         108     49.77%    100.00%
system.ruby.L1Cache_Controller.M_W.Load::total          217                      
system.ruby.L1Cache_Controller.M_W.Store |          31     57.41%     57.41% |          14     25.93%     83.33% |           2      3.70%     87.04% |           7     12.96%    100.00%
system.ruby.L1Cache_Controller.M_W.Store::total           54                      
system.ruby.L1Cache_Controller.M_W.Ack   |        2965      9.82%      9.82% |       15503     51.33%     61.15% |        4448     14.73%     75.88% |        7284     24.12%    100.00%
system.ruby.L1Cache_Controller.M_W.Ack::total        30200                      
system.ruby.L1Cache_Controller.M_W.All_acks_no_sharers |        9168      0.28%      0.28% |       28930      0.89%      1.18% |        5744      0.18%      1.35% |     3194161     98.65%    100.00%
system.ruby.L1Cache_Controller.M_W.All_acks_no_sharers::total      3238003                      
system.ruby.L1Cache_Controller.MM_W.Load |           1    100.00%    100.00% |           0      0.00%    100.00% |           0      0.00%    100.00% |           0      0.00%    100.00%
system.ruby.L1Cache_Controller.MM_W.Load::total            1                      
system.ruby.L1Cache_Controller.MM_W.Store |         512     10.07%     10.07% |        2751     54.12%     64.19% |         356      7.00%     71.20% |        1464     28.80%    100.00%
system.ruby.L1Cache_Controller.MM_W.Store::total         5083                      
system.ruby.L1Cache_Controller.MM_W.Ack  |        1187      8.93%      8.93% |        5498     41.35%     50.28% |         947      7.12%     57.40% |        5664     42.60%    100.00%
system.ruby.L1Cache_Controller.MM_W.Ack::total        13296                      
system.ruby.L1Cache_Controller.MM_W.All_acks_no_sharers |        9497      0.35%      0.35% |       11334      0.42%      0.77% |        3603      0.13%      0.91% |     2663740     99.09%    100.00%
system.ruby.L1Cache_Controller.MM_W.All_acks_no_sharers::total      2688174                      
system.ruby.L1Cache_Controller.IS.Other_GETS |          18     94.74%     94.74% |           1      5.26%    100.00% |           0      0.00%    100.00% |           0      0.00%    100.00%
system.ruby.L1Cache_Controller.IS.Other_GETS::total           19                      
system.ruby.L1Cache_Controller.IS.Ack    |       26464      0.27%      0.27% |       61367      0.63%      0.91% |       15917      0.16%      1.07% |     9582589     98.93%    100.00%
system.ruby.L1Cache_Controller.IS.Ack::total      9686337                      
system.ruby.L1Cache_Controller.IS.Shared_Ack |        4770     17.13%     17.13% |        3749     13.46%     30.59% |        2728      9.80%     40.38% |       16603     59.62%    100.00%
system.ruby.L1Cache_Controller.IS.Shared_Ack::total        27850                      
system.ruby.L1Cache_Controller.IS.Data   |         886      8.04%      8.04% |        2900     26.31%     34.34% |         472      4.28%     38.62% |        6766     61.38%    100.00%
system.ruby.L1Cache_Controller.IS.Data::total        11024                      
system.ruby.L1Cache_Controller.IS.Shared_Data |        8306     25.69%     25.69% |        7152     22.12%     47.82% |        7990     24.72%     72.53% |        8880     27.47%    100.00%
system.ruby.L1Cache_Controller.IS.Shared_Data::total        32328                      
system.ruby.L1Cache_Controller.IS.Exclusive_Data |        9199      0.28%      0.28% |       28944      0.89%      1.18% |        5746      0.18%      1.36% |     3194168     98.64%    100.00%
system.ruby.L1Cache_Controller.IS.Exclusive_Data::total      3238057                      
system.ruby.L1Cache_Controller.SS.Load   |          47     11.75%     11.75% |         152     38.00%     49.75% |           7      1.75%     51.50% |         194     48.50%    100.00%
system.ruby.L1Cache_Controller.SS.Load::total          400                      
system.ruby.L1Cache_Controller.SS.Ifetch |        1150     23.06%     23.06% |         575     11.53%     34.59% |         557     11.17%     45.76% |        2705     54.24%    100.00%
system.ruby.L1Cache_Controller.SS.Ifetch::total         4987                      
system.ruby.L1Cache_Controller.SS.Store  |          23     71.88%     71.88% |           4     12.50%     84.38% |           0      0.00%     84.38% |           5     15.62%    100.00%
system.ruby.L1Cache_Controller.SS.Store::total           32                      
system.ruby.L1Cache_Controller.SS.Ack    |        5718     25.33%     25.33% |        6132     27.17%     52.50% |        5481     24.28%     76.78% |        5240     23.22%    100.00%
system.ruby.L1Cache_Controller.SS.Ack::total        22571                      
system.ruby.L1Cache_Controller.SS.Shared_Ack |        3456     39.43%     39.43% |         616      7.03%     46.46% |        1539     17.56%     64.02% |        3154     35.98%    100.00%
system.ruby.L1Cache_Controller.SS.Shared_Ack::total         8765                      
system.ruby.L1Cache_Controller.SS.All_acks |        9190     21.60%     21.60% |        9454     22.22%     43.81% |        8458     19.87%     63.69% |       15454     36.31%    100.00%
system.ruby.L1Cache_Controller.SS.All_acks::total        42556                      
system.ruby.L1Cache_Controller.SS.All_acks_no_sharers |           2      0.25%      0.25% |         598     75.13%     75.38% |           4      0.50%     75.88% |         192     24.12%    100.00%
system.ruby.L1Cache_Controller.SS.All_acks_no_sharers::total          796                      
system.ruby.L1Cache_Controller.OI.Load   |           0      0.00%      0.00% |           9     81.82%     81.82% |           0      0.00%     81.82% |           2     18.18%    100.00%
system.ruby.L1Cache_Controller.OI.Load::total           11                      
system.ruby.L1Cache_Controller.OI.Ifetch |           0      0.00%      0.00% |           2    100.00%    100.00% |           0      0.00%    100.00% |           0      0.00%    100.00%
system.ruby.L1Cache_Controller.OI.Ifetch::total            2                      
system.ruby.L1Cache_Controller.OI.Writeback_Ack |           3      0.06%      0.06% |         883     16.56%     16.61% |           0      0.00%     16.61% |        4447     83.39%    100.00%
system.ruby.L1Cache_Controller.OI.Writeback_Ack::total         5333                      
system.ruby.L1Cache_Controller.MI.Load   |           0      0.00%      0.00% |          39      5.57%      5.57% |           0      0.00%      5.57% |         661     94.43%    100.00%
system.ruby.L1Cache_Controller.MI.Load::total          700                      
system.ruby.L1Cache_Controller.MI.Store  |           0      0.00%      0.00% |          34      2.12%      2.12% |           0      0.00%      2.12% |        1571     97.88%    100.00%
system.ruby.L1Cache_Controller.MI.Store::total         1605                      
system.ruby.L1Cache_Controller.MI.Writeback_Ack |          18      0.00%      0.00% |        9047      0.16%      0.16% |           0      0.00%      0.16% |     5815389     99.84%    100.00%
system.ruby.L1Cache_Controller.MI.Writeback_Ack::total      5824454                      
system.ruby.L1Cache_Controller.ST.Complete_L2_to_L1 |       28792     16.80%     16.80% |       31637     18.46%     35.26% |       12104      7.06%     42.32% |       98871     57.68%    100.00%
system.ruby.L1Cache_Controller.ST.Complete_L2_to_L1::total       171404                      
system.ruby.L1Cache_Controller.OT.Complete_L2_to_L1 |        2991      8.50%      8.50% |        8688     24.69%     33.19% |        8454     24.03%     57.22% |       15051     42.78%    100.00%
system.ruby.L1Cache_Controller.OT.Complete_L2_to_L1::total        35184                      
system.ruby.L1Cache_Controller.MT.Complete_L2_to_L1 |        6098      0.27%      0.27% |        3324      0.15%      0.42% |         444      0.02%      0.44% |     2252034     99.56%    100.00%
system.ruby.L1Cache_Controller.MT.Complete_L2_to_L1::total      2261900                      
system.ruby.L1Cache_Controller.MMT.Complete_L2_to_L1 |        5846      0.06%      0.06% |      102529      1.02%      1.08% |        1712      0.02%      1.10% |     9937005     98.90%    100.00%
system.ruby.L1Cache_Controller.MMT.Complete_L2_to_L1::total     10047092                      

---------- End Simulation Statistics   ----------
