
---------- Begin Simulation Statistics ----------
sim_seconds                                  1.756496                       # Number of seconds simulated
sim_ticks                                1756496240000                       # Number of ticks simulated
final_tick                               53985087135501                       # Number of ticks from beginning of simulation (restored from checkpoints and never reset)
sim_freq                                 1000000000000                       # Frequency of simulated ticks
host_inst_rate                                 107682                       # Simulator instruction rate (inst/s)
host_op_rate                                   160454                       # Simulator op (including micro ops) rate (op/s)
host_tick_rate                              260906783                       # Simulator tick rate (ticks/s)
host_mem_usage                                2491764                       # Number of bytes of host memory used
host_seconds                                  6732.28                       # Real time elapsed on the host
sim_insts                                   724941830                       # Number of instructions simulated
sim_ops                                    1080220231                       # Number of ops (including micro ops) simulated
system.voltage_domain.voltage                       1                       # Voltage in Volts
system.clk_domain.clock                          1000                       # Clock period in ticks
system.mem_ctrls0.bytes_read::ruby.dir_cntrl0    188239104                       # Number of bytes read from this memory
system.mem_ctrls0.bytes_read::total         188239104                       # Number of bytes read from this memory
system.mem_ctrls0.bytes_written::ruby.dir_cntrl0     85460352                       # Number of bytes written to this memory
system.mem_ctrls0.bytes_written::total       85460352                       # Number of bytes written to this memory
system.mem_ctrls0.num_reads::ruby.dir_cntrl0      2941236                       # Number of read requests responded to by this memory
system.mem_ctrls0.num_reads::total            2941236                       # Number of read requests responded to by this memory
system.mem_ctrls0.num_writes::ruby.dir_cntrl0      1335318                       # Number of write requests responded to by this memory
system.mem_ctrls0.num_writes::total           1335318                       # Number of write requests responded to by this memory
system.mem_ctrls0.bw_read::ruby.dir_cntrl0    107167382                       # Total read bandwidth from this memory (bytes/s)
system.mem_ctrls0.bw_read::total            107167382                       # Total read bandwidth from this memory (bytes/s)
system.mem_ctrls0.bw_write::ruby.dir_cntrl0     48653877                       # Write bandwidth from this memory (bytes/s)
system.mem_ctrls0.bw_write::total            48653877                       # Write bandwidth from this memory (bytes/s)
system.mem_ctrls0.bw_total::ruby.dir_cntrl0    155821259                       # Total bandwidth to/from this memory (bytes/s)
system.mem_ctrls0.bw_total::total           155821259                       # Total bandwidth to/from this memory (bytes/s)
system.mem_ctrls0.readReqs                    2941236                       # Number of read requests accepted
system.mem_ctrls0.writeReqs                   1335318                       # Number of write requests accepted
system.mem_ctrls0.readBursts                  2941236                       # Number of DRAM read bursts, including those serviced by the write queue
system.mem_ctrls0.writeBursts                 1335318                       # Number of DRAM write bursts, including those merged in the write queue
system.mem_ctrls0.bytesReadDRAM             188183296                       # Total number of bytes read from DRAM
system.mem_ctrls0.bytesReadWrQ                  55808                       # Total number of bytes read from write queue
system.mem_ctrls0.bytesWritten               85454016                       # Total number of bytes written to DRAM
system.mem_ctrls0.bytesReadSys              188239104                       # Total read bytes from the system interface side
system.mem_ctrls0.bytesWrittenSys            85460352                       # Total written bytes from the system interface side
system.mem_ctrls0.servicedByWrQ                   872                       # Number of DRAM read bursts serviced by the write queue
system.mem_ctrls0.mergedWrBursts                   85                       # Number of DRAM write bursts merged with an existing one
system.mem_ctrls0.neitherReadNorWriteReqs            0                       # Number of requests that are neither read nor write
system.mem_ctrls0.perBankRdBursts::0           184627                       # Per bank write bursts
system.mem_ctrls0.perBankRdBursts::1           184955                       # Per bank write bursts
system.mem_ctrls0.perBankRdBursts::2           184407                       # Per bank write bursts
system.mem_ctrls0.perBankRdBursts::3           183596                       # Per bank write bursts
system.mem_ctrls0.perBankRdBursts::4           183623                       # Per bank write bursts
system.mem_ctrls0.perBankRdBursts::5           183217                       # Per bank write bursts
system.mem_ctrls0.perBankRdBursts::6           182612                       # Per bank write bursts
system.mem_ctrls0.perBankRdBursts::7           182712                       # Per bank write bursts
system.mem_ctrls0.perBankRdBursts::8           183210                       # Per bank write bursts
system.mem_ctrls0.perBankRdBursts::9           182485                       # Per bank write bursts
system.mem_ctrls0.perBankRdBursts::10          182931                       # Per bank write bursts
system.mem_ctrls0.perBankRdBursts::11          183138                       # Per bank write bursts
system.mem_ctrls0.perBankRdBursts::12          183883                       # Per bank write bursts
system.mem_ctrls0.perBankRdBursts::13          183588                       # Per bank write bursts
system.mem_ctrls0.perBankRdBursts::14          184678                       # Per bank write bursts
system.mem_ctrls0.perBankRdBursts::15          186702                       # Per bank write bursts
system.mem_ctrls0.perBankWrBursts::0            84208                       # Per bank write bursts
system.mem_ctrls0.perBankWrBursts::1            84480                       # Per bank write bursts
system.mem_ctrls0.perBankWrBursts::2            83796                       # Per bank write bursts
system.mem_ctrls0.perBankWrBursts::3            83085                       # Per bank write bursts
system.mem_ctrls0.perBankWrBursts::4            83152                       # Per bank write bursts
system.mem_ctrls0.perBankWrBursts::5            82988                       # Per bank write bursts
system.mem_ctrls0.perBankWrBursts::6            82494                       # Per bank write bursts
system.mem_ctrls0.perBankWrBursts::7            82786                       # Per bank write bursts
system.mem_ctrls0.perBankWrBursts::8            83124                       # Per bank write bursts
system.mem_ctrls0.perBankWrBursts::9            82631                       # Per bank write bursts
system.mem_ctrls0.perBankWrBursts::10           82877                       # Per bank write bursts
system.mem_ctrls0.perBankWrBursts::11           83181                       # Per bank write bursts
system.mem_ctrls0.perBankWrBursts::12           83837                       # Per bank write bursts
system.mem_ctrls0.perBankWrBursts::13           83438                       # Per bank write bursts
system.mem_ctrls0.perBankWrBursts::14           84153                       # Per bank write bursts
system.mem_ctrls0.perBankWrBursts::15           84989                       # Per bank write bursts
system.mem_ctrls0.numRdRetry                        0                       # Number of times read queue was full causing retry
system.mem_ctrls0.numWrRetry                        0                       # Number of times write queue was full causing retry
system.mem_ctrls0.totGap                 1756496238500                       # Total gap between requests
system.mem_ctrls0.readPktSize::0                    0                       # Read request sizes (log2)
system.mem_ctrls0.readPktSize::1                    0                       # Read request sizes (log2)
system.mem_ctrls0.readPktSize::2                    0                       # Read request sizes (log2)
system.mem_ctrls0.readPktSize::3                    0                       # Read request sizes (log2)
system.mem_ctrls0.readPktSize::4                    0                       # Read request sizes (log2)
system.mem_ctrls0.readPktSize::5                    0                       # Read request sizes (log2)
system.mem_ctrls0.readPktSize::6              2941236                       # Read request sizes (log2)
system.mem_ctrls0.writePktSize::0                   0                       # Write request sizes (log2)
system.mem_ctrls0.writePktSize::1                   0                       # Write request sizes (log2)
system.mem_ctrls0.writePktSize::2                   0                       # Write request sizes (log2)
system.mem_ctrls0.writePktSize::3                   0                       # Write request sizes (log2)
system.mem_ctrls0.writePktSize::4                   0                       # Write request sizes (log2)
system.mem_ctrls0.writePktSize::5                   0                       # Write request sizes (log2)
system.mem_ctrls0.writePktSize::6             1335318                       # Write request sizes (log2)
system.mem_ctrls0.rdQLenPdf::0                2939908                       # What read queue length does an incoming req see
system.mem_ctrls0.rdQLenPdf::1                    454                       # What read queue length does an incoming req see
system.mem_ctrls0.rdQLenPdf::2                      2                       # What read queue length does an incoming req see
system.mem_ctrls0.rdQLenPdf::3                      0                       # What read queue length does an incoming req see
system.mem_ctrls0.rdQLenPdf::4                      0                       # What read queue length does an incoming req see
system.mem_ctrls0.rdQLenPdf::5                      0                       # What read queue length does an incoming req see
system.mem_ctrls0.rdQLenPdf::6                      0                       # What read queue length does an incoming req see
system.mem_ctrls0.rdQLenPdf::7                      0                       # What read queue length does an incoming req see
system.mem_ctrls0.rdQLenPdf::8                      0                       # What read queue length does an incoming req see
system.mem_ctrls0.rdQLenPdf::9                      0                       # What read queue length does an incoming req see
system.mem_ctrls0.rdQLenPdf::10                     0                       # What read queue length does an incoming req see
system.mem_ctrls0.rdQLenPdf::11                     0                       # What read queue length does an incoming req see
system.mem_ctrls0.rdQLenPdf::12                     0                       # What read queue length does an incoming req see
system.mem_ctrls0.rdQLenPdf::13                     0                       # What read queue length does an incoming req see
system.mem_ctrls0.rdQLenPdf::14                     0                       # What read queue length does an incoming req see
system.mem_ctrls0.rdQLenPdf::15                     0                       # What read queue length does an incoming req see
system.mem_ctrls0.rdQLenPdf::16                     0                       # What read queue length does an incoming req see
system.mem_ctrls0.rdQLenPdf::17                     0                       # What read queue length does an incoming req see
system.mem_ctrls0.rdQLenPdf::18                     0                       # What read queue length does an incoming req see
system.mem_ctrls0.rdQLenPdf::19                     0                       # What read queue length does an incoming req see
system.mem_ctrls0.rdQLenPdf::20                     0                       # What read queue length does an incoming req see
system.mem_ctrls0.rdQLenPdf::21                     0                       # What read queue length does an incoming req see
system.mem_ctrls0.rdQLenPdf::22                     0                       # What read queue length does an incoming req see
system.mem_ctrls0.rdQLenPdf::23                     0                       # What read queue length does an incoming req see
system.mem_ctrls0.rdQLenPdf::24                     0                       # What read queue length does an incoming req see
system.mem_ctrls0.rdQLenPdf::25                     0                       # What read queue length does an incoming req see
system.mem_ctrls0.rdQLenPdf::26                     0                       # What read queue length does an incoming req see
system.mem_ctrls0.rdQLenPdf::27                     0                       # What read queue length does an incoming req see
system.mem_ctrls0.rdQLenPdf::28                     0                       # What read queue length does an incoming req see
system.mem_ctrls0.rdQLenPdf::29                     0                       # What read queue length does an incoming req see
system.mem_ctrls0.rdQLenPdf::30                     0                       # What read queue length does an incoming req see
system.mem_ctrls0.rdQLenPdf::31                     0                       # What read queue length does an incoming req see
system.mem_ctrls0.wrQLenPdf::0                      0                       # What write queue length does an incoming req see
system.mem_ctrls0.wrQLenPdf::1                      0                       # What write queue length does an incoming req see
system.mem_ctrls0.wrQLenPdf::2                      0                       # What write queue length does an incoming req see
system.mem_ctrls0.wrQLenPdf::3                      0                       # What write queue length does an incoming req see
system.mem_ctrls0.wrQLenPdf::4                      0                       # What write queue length does an incoming req see
system.mem_ctrls0.wrQLenPdf::5                      0                       # What write queue length does an incoming req see
system.mem_ctrls0.wrQLenPdf::6                      1                       # What write queue length does an incoming req see
system.mem_ctrls0.wrQLenPdf::7                      1                       # What write queue length does an incoming req see
system.mem_ctrls0.wrQLenPdf::8                      1                       # What write queue length does an incoming req see
system.mem_ctrls0.wrQLenPdf::9                      1                       # What write queue length does an incoming req see
system.mem_ctrls0.wrQLenPdf::10                     1                       # What write queue length does an incoming req see
system.mem_ctrls0.wrQLenPdf::11                     1                       # What write queue length does an incoming req see
system.mem_ctrls0.wrQLenPdf::12                     1                       # What write queue length does an incoming req see
system.mem_ctrls0.wrQLenPdf::13                     1                       # What write queue length does an incoming req see
system.mem_ctrls0.wrQLenPdf::14                     1                       # What write queue length does an incoming req see
system.mem_ctrls0.wrQLenPdf::15                 55881                       # What write queue length does an incoming req see
system.mem_ctrls0.wrQLenPdf::16                 59145                       # What write queue length does an incoming req see
system.mem_ctrls0.wrQLenPdf::17                 72753                       # What write queue length does an incoming req see
system.mem_ctrls0.wrQLenPdf::18                 76702                       # What write queue length does an incoming req see
system.mem_ctrls0.wrQLenPdf::19                 76912                       # What write queue length does an incoming req see
system.mem_ctrls0.wrQLenPdf::20                 76894                       # What write queue length does an incoming req see
system.mem_ctrls0.wrQLenPdf::21                 76798                       # What write queue length does an incoming req see
system.mem_ctrls0.wrQLenPdf::22                 76801                       # What write queue length does an incoming req see
system.mem_ctrls0.wrQLenPdf::23                 76667                       # What write queue length does an incoming req see
system.mem_ctrls0.wrQLenPdf::24                 76744                       # What write queue length does an incoming req see
system.mem_ctrls0.wrQLenPdf::25                 76672                       # What write queue length does an incoming req see
system.mem_ctrls0.wrQLenPdf::26                 76649                       # What write queue length does an incoming req see
system.mem_ctrls0.wrQLenPdf::27                 76384                       # What write queue length does an incoming req see
system.mem_ctrls0.wrQLenPdf::28                 76308                       # What write queue length does an incoming req see
system.mem_ctrls0.wrQLenPdf::29                 76193                       # What write queue length does an incoming req see
system.mem_ctrls0.wrQLenPdf::30                 75861                       # What write queue length does an incoming req see
system.mem_ctrls0.wrQLenPdf::31                 75811                       # What write queue length does an incoming req see
system.mem_ctrls0.wrQLenPdf::32                 75810                       # What write queue length does an incoming req see
system.mem_ctrls0.wrQLenPdf::33                   189                       # What write queue length does an incoming req see
system.mem_ctrls0.wrQLenPdf::34                    40                       # What write queue length does an incoming req see
system.mem_ctrls0.wrQLenPdf::35                     9                       # What write queue length does an incoming req see
system.mem_ctrls0.wrQLenPdf::36                     1                       # What write queue length does an incoming req see
system.mem_ctrls0.wrQLenPdf::37                     0                       # What write queue length does an incoming req see
system.mem_ctrls0.wrQLenPdf::38                     0                       # What write queue length does an incoming req see
system.mem_ctrls0.wrQLenPdf::39                     0                       # What write queue length does an incoming req see
system.mem_ctrls0.wrQLenPdf::40                     0                       # What write queue length does an incoming req see
system.mem_ctrls0.wrQLenPdf::41                     0                       # What write queue length does an incoming req see
system.mem_ctrls0.wrQLenPdf::42                     0                       # What write queue length does an incoming req see
system.mem_ctrls0.wrQLenPdf::43                     0                       # What write queue length does an incoming req see
system.mem_ctrls0.wrQLenPdf::44                     0                       # What write queue length does an incoming req see
system.mem_ctrls0.wrQLenPdf::45                     0                       # What write queue length does an incoming req see
system.mem_ctrls0.wrQLenPdf::46                     0                       # What write queue length does an incoming req see
system.mem_ctrls0.wrQLenPdf::47                     0                       # What write queue length does an incoming req see
system.mem_ctrls0.wrQLenPdf::48                     0                       # What write queue length does an incoming req see
system.mem_ctrls0.wrQLenPdf::49                     0                       # What write queue length does an incoming req see
system.mem_ctrls0.wrQLenPdf::50                     0                       # What write queue length does an incoming req see
system.mem_ctrls0.wrQLenPdf::51                     0                       # What write queue length does an incoming req see
system.mem_ctrls0.wrQLenPdf::52                     0                       # What write queue length does an incoming req see
system.mem_ctrls0.wrQLenPdf::53                     0                       # What write queue length does an incoming req see
system.mem_ctrls0.wrQLenPdf::54                     0                       # What write queue length does an incoming req see
system.mem_ctrls0.wrQLenPdf::55                     0                       # What write queue length does an incoming req see
system.mem_ctrls0.wrQLenPdf::56                     0                       # What write queue length does an incoming req see
system.mem_ctrls0.wrQLenPdf::57                     0                       # What write queue length does an incoming req see
system.mem_ctrls0.wrQLenPdf::58                     0                       # What write queue length does an incoming req see
system.mem_ctrls0.wrQLenPdf::59                     0                       # What write queue length does an incoming req see
system.mem_ctrls0.wrQLenPdf::60                     0                       # What write queue length does an incoming req see
system.mem_ctrls0.wrQLenPdf::61                     0                       # What write queue length does an incoming req see
system.mem_ctrls0.wrQLenPdf::62                     0                       # What write queue length does an incoming req see
system.mem_ctrls0.wrQLenPdf::63                     0                       # What write queue length does an incoming req see
system.mem_ctrls0.bytesPerActivate::samples      1929616                       # Bytes accessed per row activation
system.mem_ctrls0.bytesPerActivate::mean   141.809206                       # Bytes accessed per row activation
system.mem_ctrls0.bytesPerActivate::gmean    90.133466                       # Bytes accessed per row activation
system.mem_ctrls0.bytesPerActivate::stdev   211.096141                       # Bytes accessed per row activation
system.mem_ctrls0.bytesPerActivate::0-127      1523313     78.94%     78.94% # Bytes accessed per row activation
system.mem_ctrls0.bytesPerActivate::128-255       160623      8.32%     87.27% # Bytes accessed per row activation
system.mem_ctrls0.bytesPerActivate::256-383        62850      3.26%     90.53% # Bytes accessed per row activation
system.mem_ctrls0.bytesPerActivate::384-511        38920      2.02%     92.54% # Bytes accessed per row activation
system.mem_ctrls0.bytesPerActivate::512-639        35130      1.82%     94.36% # Bytes accessed per row activation
system.mem_ctrls0.bytesPerActivate::640-767        15990      0.83%     95.19% # Bytes accessed per row activation
system.mem_ctrls0.bytesPerActivate::768-895        24342      1.26%     96.45% # Bytes accessed per row activation
system.mem_ctrls0.bytesPerActivate::896-1023         9170      0.48%     96.93% # Bytes accessed per row activation
system.mem_ctrls0.bytesPerActivate::1024-1151        59278      3.07%    100.00% # Bytes accessed per row activation
system.mem_ctrls0.bytesPerActivate::total      1929616                       # Bytes accessed per row activation
system.mem_ctrls0.rdPerTurnAround::samples        75805                       # Reads before turning the bus around for writes
system.mem_ctrls0.rdPerTurnAround::mean     38.897355                       # Reads before turning the bus around for writes
system.mem_ctrls0.rdPerTurnAround::stdev  1157.704432                       # Reads before turning the bus around for writes
system.mem_ctrls0.rdPerTurnAround::0-8191        75798     99.99%     99.99% # Reads before turning the bus around for writes
system.mem_ctrls0.rdPerTurnAround::8192-16383            1      0.00%     99.99% # Reads before turning the bus around for writes
system.mem_ctrls0.rdPerTurnAround::49152-57343            1      0.00%     99.99% # Reads before turning the bus around for writes
system.mem_ctrls0.rdPerTurnAround::65536-73727            1      0.00%     99.99% # Reads before turning the bus around for writes
system.mem_ctrls0.rdPerTurnAround::81920-90111            1      0.00%    100.00% # Reads before turning the bus around for writes
system.mem_ctrls0.rdPerTurnAround::139264-147455            1      0.00%    100.00% # Reads before turning the bus around for writes
system.mem_ctrls0.rdPerTurnAround::172032-180223            1      0.00%    100.00% # Reads before turning the bus around for writes
system.mem_ctrls0.rdPerTurnAround::180224-188415            1      0.00%    100.00% # Reads before turning the bus around for writes
system.mem_ctrls0.rdPerTurnAround::total        75805                       # Reads before turning the bus around for writes
system.mem_ctrls0.wrPerTurnAround::samples        75805                       # Writes before turning the bus around for reads
system.mem_ctrls0.wrPerTurnAround::mean     17.613865                       # Writes before turning the bus around for reads
system.mem_ctrls0.wrPerTurnAround::gmean    17.587130                       # Writes before turning the bus around for reads
system.mem_ctrls0.wrPerTurnAround::stdev     0.960038                       # Writes before turning the bus around for reads
system.mem_ctrls0.wrPerTurnAround::16           17091     22.55%     22.55% # Writes before turning the bus around for reads
system.mem_ctrls0.wrPerTurnAround::17            2198      2.90%     25.45% # Writes before turning the bus around for reads
system.mem_ctrls0.wrPerTurnAround::18           50774     66.98%     92.43% # Writes before turning the bus around for reads
system.mem_ctrls0.wrPerTurnAround::19            4650      6.13%     98.56% # Writes before turning the bus around for reads
system.mem_ctrls0.wrPerTurnAround::20             881      1.16%     99.72% # Writes before turning the bus around for reads
system.mem_ctrls0.wrPerTurnAround::21             171      0.23%     99.95% # Writes before turning the bus around for reads
system.mem_ctrls0.wrPerTurnAround::22              27      0.04%     99.98% # Writes before turning the bus around for reads
system.mem_ctrls0.wrPerTurnAround::23               7      0.01%     99.99% # Writes before turning the bus around for reads
system.mem_ctrls0.wrPerTurnAround::24               3      0.00%    100.00% # Writes before turning the bus around for reads
system.mem_ctrls0.wrPerTurnAround::25               2      0.00%    100.00% # Writes before turning the bus around for reads
system.mem_ctrls0.wrPerTurnAround::27               1      0.00%    100.00% # Writes before turning the bus around for reads
system.mem_ctrls0.wrPerTurnAround::total        75805                       # Writes before turning the bus around for reads
system.mem_ctrls0.totQLat                 33394015250                       # Total ticks spent queuing
system.mem_ctrls0.totMemAccLat            88525840250                       # Total ticks spent from burst creation until serviced by the DRAM
system.mem_ctrls0.totBusLat               14701820000                       # Total ticks spent in databus transfers
system.mem_ctrls0.avgQLat                    11357.10                       # Average queueing delay per DRAM burst
system.mem_ctrls0.avgBusLat                   5000.00                       # Average bus latency per DRAM burst
system.mem_ctrls0.avgMemAccLat               30107.10                       # Average memory access latency per DRAM burst
system.mem_ctrls0.avgRdBW                      107.14                       # Average DRAM read bandwidth in MiByte/s
system.mem_ctrls0.avgWrBW                       48.65                       # Average achieved write bandwidth in MiByte/s
system.mem_ctrls0.avgRdBWSys                   107.17                       # Average system read bandwidth in MiByte/s
system.mem_ctrls0.avgWrBWSys                    48.65                       # Average system write bandwidth in MiByte/s
system.mem_ctrls0.peakBW                     12800.00                       # Theoretical peak bandwidth in MiByte/s
system.mem_ctrls0.busUtil                        1.22                       # Data bus utilization in percentage
system.mem_ctrls0.busUtilRead                    0.84                       # Data bus utilization in percentage for reads
system.mem_ctrls0.busUtilWrite                   0.38                       # Data bus utilization in percentage for writes
system.mem_ctrls0.avgRdQLen                      1.00                       # Average read queue length when enqueuing
system.mem_ctrls0.avgWrQLen                     24.45                       # Average write queue length when enqueuing
system.mem_ctrls0.readRowHits                 1849580                       # Number of row buffer hits during reads
system.mem_ctrls0.writeRowHits                 496386                       # Number of row buffer hits during writes
system.mem_ctrls0.readRowHitRate                62.90                       # Row buffer hit rate for reads
system.mem_ctrls0.writeRowHitRate               37.18                       # Row buffer hit rate for writes
system.mem_ctrls0.avgGap                    410727.01                       # Average gap between requests
system.mem_ctrls0.pageHitRate                   54.87                       # Row buffer hit rate, read and write combined
system.mem_ctrls0_0.actEnergy              7299195120                       # Energy for activate commands per rank (pJ)
system.mem_ctrls0_0.preEnergy              3982695750                       # Energy for precharge commands per rank (pJ)
system.mem_ctrls0_0.readEnergy            11488347000                       # Energy for read commands per rank (pJ)
system.mem_ctrls0_0.writeEnergy            4322088720                       # Energy for write commands per rank (pJ)
system.mem_ctrls0_0.refreshEnergy        114951342480                       # Energy for refresh commands per rank (pJ)
system.mem_ctrls0_0.actBackEnergy        550406326095                       # Energy for active background per rank (pJ)
system.mem_ctrls0_0.preBackEnergy        573157257000                       # Energy for precharge background per rank (pJ)
system.mem_ctrls0_0.totalEnergy          1265607252165                       # Total energy per rank (pJ)
system.mem_ctrls0_0.averagePower           719.115579                       # Core power per rank (mW)
system.mem_ctrls0_0.memoryStateTime::IDLE 948304108500                       # Time in different power states
system.mem_ctrls0_0.memoryStateTime::REF  58653140000                       # Time in different power states
system.mem_ctrls0_0.memoryStateTime::PRE_PDN            0                       # Time in different power states
system.mem_ctrls0_0.memoryStateTime::ACT 749539230500                       # Time in different power states
system.mem_ctrls0_0.memoryStateTime::ACT_PDN            0                       # Time in different power states
system.mem_ctrls0_1.actEnergy              7308267120                       # Energy for activate commands per rank (pJ)
system.mem_ctrls0_1.preEnergy              3987645750                       # Energy for precharge commands per rank (pJ)
system.mem_ctrls0_1.readEnergy            11510842200                       # Energy for read commands per rank (pJ)
system.mem_ctrls0_1.writeEnergy            4330130400                       # Energy for write commands per rank (pJ)
system.mem_ctrls0_1.refreshEnergy        114951342480                       # Energy for refresh commands per rank (pJ)
system.mem_ctrls0_1.actBackEnergy        551780635995                       # Energy for active background per rank (pJ)
system.mem_ctrls0_1.preBackEnergy        571951722000                       # Energy for precharge background per rank (pJ)
system.mem_ctrls0_1.totalEnergy          1265820585945                       # Total energy per rank (pJ)
system.mem_ctrls0_1.averagePower           719.236795                       # Core power per rank (mW)
system.mem_ctrls0_1.memoryStateTime::IDLE 946873461500                       # Time in different power states
system.mem_ctrls0_1.memoryStateTime::REF  58653140000                       # Time in different power states
system.mem_ctrls0_1.memoryStateTime::PRE_PDN            0                       # Time in different power states
system.mem_ctrls0_1.memoryStateTime::ACT 750965924750                       # Time in different power states
system.mem_ctrls0_1.memoryStateTime::ACT_PDN            0                       # Time in different power states
system.mem_ctrls1.bytes_read::ruby.dir_cntrl1    188208704                       # Number of bytes read from this memory
system.mem_ctrls1.bytes_read::total         188208704                       # Number of bytes read from this memory
system.mem_ctrls1.bytes_written::ruby.dir_cntrl1     85535680                       # Number of bytes written to this memory
system.mem_ctrls1.bytes_written::total       85535680                       # Number of bytes written to this memory
system.mem_ctrls1.num_reads::ruby.dir_cntrl1      2940761                       # Number of read requests responded to by this memory
system.mem_ctrls1.num_reads::total            2940761                       # Number of read requests responded to by this memory
system.mem_ctrls1.num_writes::ruby.dir_cntrl1      1336495                       # Number of write requests responded to by this memory
system.mem_ctrls1.num_writes::total           1336495                       # Number of write requests responded to by this memory
system.mem_ctrls1.bw_read::ruby.dir_cntrl1    107150075                       # Total read bandwidth from this memory (bytes/s)
system.mem_ctrls1.bw_read::total            107150075                       # Total read bandwidth from this memory (bytes/s)
system.mem_ctrls1.bw_write::ruby.dir_cntrl1     48696762                       # Write bandwidth from this memory (bytes/s)
system.mem_ctrls1.bw_write::total            48696762                       # Write bandwidth from this memory (bytes/s)
system.mem_ctrls1.bw_total::ruby.dir_cntrl1    155846837                       # Total bandwidth to/from this memory (bytes/s)
system.mem_ctrls1.bw_total::total           155846837                       # Total bandwidth to/from this memory (bytes/s)
system.mem_ctrls1.readReqs                    2940761                       # Number of read requests accepted
system.mem_ctrls1.writeReqs                   1336495                       # Number of write requests accepted
system.mem_ctrls1.readBursts                  2940761                       # Number of DRAM read bursts, including those serviced by the write queue
system.mem_ctrls1.writeBursts                 1336495                       # Number of DRAM write bursts, including those merged in the write queue
system.mem_ctrls1.bytesReadDRAM             188155008                       # Total number of bytes read from DRAM
system.mem_ctrls1.bytesReadWrQ                  53696                       # Total number of bytes read from write queue
system.mem_ctrls1.bytesWritten               85530880                       # Total number of bytes written to DRAM
system.mem_ctrls1.bytesReadSys              188208704                       # Total read bytes from the system interface side
system.mem_ctrls1.bytesWrittenSys            85535680                       # Total written bytes from the system interface side
system.mem_ctrls1.servicedByWrQ                   839                       # Number of DRAM read bursts serviced by the write queue
system.mem_ctrls1.mergedWrBursts                   68                       # Number of DRAM write bursts merged with an existing one
system.mem_ctrls1.neitherReadNorWriteReqs            0                       # Number of requests that are neither read nor write
system.mem_ctrls1.perBankRdBursts::0           184626                       # Per bank write bursts
system.mem_ctrls1.perBankRdBursts::1           184951                       # Per bank write bursts
system.mem_ctrls1.perBankRdBursts::2           184143                       # Per bank write bursts
system.mem_ctrls1.perBankRdBursts::3           183571                       # Per bank write bursts
system.mem_ctrls1.perBankRdBursts::4           183433                       # Per bank write bursts
system.mem_ctrls1.perBankRdBursts::5           183303                       # Per bank write bursts
system.mem_ctrls1.perBankRdBursts::6           182582                       # Per bank write bursts
system.mem_ctrls1.perBankRdBursts::7           182769                       # Per bank write bursts
system.mem_ctrls1.perBankRdBursts::8           183266                       # Per bank write bursts
system.mem_ctrls1.perBankRdBursts::9           182481                       # Per bank write bursts
system.mem_ctrls1.perBankRdBursts::10          182820                       # Per bank write bursts
system.mem_ctrls1.perBankRdBursts::11          183283                       # Per bank write bursts
system.mem_ctrls1.perBankRdBursts::12          183911                       # Per bank write bursts
system.mem_ctrls1.perBankRdBursts::13          183683                       # Per bank write bursts
system.mem_ctrls1.perBankRdBursts::14          184720                       # Per bank write bursts
system.mem_ctrls1.perBankRdBursts::15          186380                       # Per bank write bursts
system.mem_ctrls1.perBankWrBursts::0            84302                       # Per bank write bursts
system.mem_ctrls1.perBankWrBursts::1            84425                       # Per bank write bursts
system.mem_ctrls1.perBankWrBursts::2            83784                       # Per bank write bursts
system.mem_ctrls1.perBankWrBursts::3            83236                       # Per bank write bursts
system.mem_ctrls1.perBankWrBursts::4            83064                       # Per bank write bursts
system.mem_ctrls1.perBankWrBursts::5            83137                       # Per bank write bursts
system.mem_ctrls1.perBankWrBursts::6            82584                       # Per bank write bursts
system.mem_ctrls1.perBankWrBursts::7            82862                       # Per bank write bursts
system.mem_ctrls1.perBankWrBursts::8            83199                       # Per bank write bursts
system.mem_ctrls1.perBankWrBursts::9            82736                       # Per bank write bursts
system.mem_ctrls1.perBankWrBursts::10           83022                       # Per bank write bursts
system.mem_ctrls1.perBankWrBursts::11           83368                       # Per bank write bursts
system.mem_ctrls1.perBankWrBursts::12           83958                       # Per bank write bursts
system.mem_ctrls1.perBankWrBursts::13           83598                       # Per bank write bursts
system.mem_ctrls1.perBankWrBursts::14           84247                       # Per bank write bursts
system.mem_ctrls1.perBankWrBursts::15           84898                       # Per bank write bursts
system.mem_ctrls1.numRdRetry                        0                       # Number of times read queue was full causing retry
system.mem_ctrls1.numWrRetry                        0                       # Number of times write queue was full causing retry
system.mem_ctrls1.totGap                 1756496016500                       # Total gap between requests
system.mem_ctrls1.readPktSize::0                    0                       # Read request sizes (log2)
system.mem_ctrls1.readPktSize::1                    0                       # Read request sizes (log2)
system.mem_ctrls1.readPktSize::2                    0                       # Read request sizes (log2)
system.mem_ctrls1.readPktSize::3                    0                       # Read request sizes (log2)
system.mem_ctrls1.readPktSize::4                    0                       # Read request sizes (log2)
system.mem_ctrls1.readPktSize::5                    0                       # Read request sizes (log2)
system.mem_ctrls1.readPktSize::6              2940761                       # Read request sizes (log2)
system.mem_ctrls1.writePktSize::0                   0                       # Write request sizes (log2)
system.mem_ctrls1.writePktSize::1                   0                       # Write request sizes (log2)
system.mem_ctrls1.writePktSize::2                   0                       # Write request sizes (log2)
system.mem_ctrls1.writePktSize::3                   0                       # Write request sizes (log2)
system.mem_ctrls1.writePktSize::4                   0                       # Write request sizes (log2)
system.mem_ctrls1.writePktSize::5                   0                       # Write request sizes (log2)
system.mem_ctrls1.writePktSize::6             1336495                       # Write request sizes (log2)
system.mem_ctrls1.rdQLenPdf::0                2939667                       # What read queue length does an incoming req see
system.mem_ctrls1.rdQLenPdf::1                    253                       # What read queue length does an incoming req see
system.mem_ctrls1.rdQLenPdf::2                      2                       # What read queue length does an incoming req see
system.mem_ctrls1.rdQLenPdf::3                      0                       # What read queue length does an incoming req see
system.mem_ctrls1.rdQLenPdf::4                      0                       # What read queue length does an incoming req see
system.mem_ctrls1.rdQLenPdf::5                      0                       # What read queue length does an incoming req see
system.mem_ctrls1.rdQLenPdf::6                      0                       # What read queue length does an incoming req see
system.mem_ctrls1.rdQLenPdf::7                      0                       # What read queue length does an incoming req see
system.mem_ctrls1.rdQLenPdf::8                      0                       # What read queue length does an incoming req see
system.mem_ctrls1.rdQLenPdf::9                      0                       # What read queue length does an incoming req see
system.mem_ctrls1.rdQLenPdf::10                     0                       # What read queue length does an incoming req see
system.mem_ctrls1.rdQLenPdf::11                     0                       # What read queue length does an incoming req see
system.mem_ctrls1.rdQLenPdf::12                     0                       # What read queue length does an incoming req see
system.mem_ctrls1.rdQLenPdf::13                     0                       # What read queue length does an incoming req see
system.mem_ctrls1.rdQLenPdf::14                     0                       # What read queue length does an incoming req see
system.mem_ctrls1.rdQLenPdf::15                     0                       # What read queue length does an incoming req see
system.mem_ctrls1.rdQLenPdf::16                     0                       # What read queue length does an incoming req see
system.mem_ctrls1.rdQLenPdf::17                     0                       # What read queue length does an incoming req see
system.mem_ctrls1.rdQLenPdf::18                     0                       # What read queue length does an incoming req see
system.mem_ctrls1.rdQLenPdf::19                     0                       # What read queue length does an incoming req see
system.mem_ctrls1.rdQLenPdf::20                     0                       # What read queue length does an incoming req see
system.mem_ctrls1.rdQLenPdf::21                     0                       # What read queue length does an incoming req see
system.mem_ctrls1.rdQLenPdf::22                     0                       # What read queue length does an incoming req see
system.mem_ctrls1.rdQLenPdf::23                     0                       # What read queue length does an incoming req see
system.mem_ctrls1.rdQLenPdf::24                     0                       # What read queue length does an incoming req see
system.mem_ctrls1.rdQLenPdf::25                     0                       # What read queue length does an incoming req see
system.mem_ctrls1.rdQLenPdf::26                     0                       # What read queue length does an incoming req see
system.mem_ctrls1.rdQLenPdf::27                     0                       # What read queue length does an incoming req see
system.mem_ctrls1.rdQLenPdf::28                     0                       # What read queue length does an incoming req see
system.mem_ctrls1.rdQLenPdf::29                     0                       # What read queue length does an incoming req see
system.mem_ctrls1.rdQLenPdf::30                     0                       # What read queue length does an incoming req see
system.mem_ctrls1.rdQLenPdf::31                     0                       # What read queue length does an incoming req see
system.mem_ctrls1.wrQLenPdf::0                      0                       # What write queue length does an incoming req see
system.mem_ctrls1.wrQLenPdf::1                      0                       # What write queue length does an incoming req see
system.mem_ctrls1.wrQLenPdf::2                      0                       # What write queue length does an incoming req see
system.mem_ctrls1.wrQLenPdf::3                      0                       # What write queue length does an incoming req see
system.mem_ctrls1.wrQLenPdf::4                      0                       # What write queue length does an incoming req see
system.mem_ctrls1.wrQLenPdf::5                      0                       # What write queue length does an incoming req see
system.mem_ctrls1.wrQLenPdf::6                      0                       # What write queue length does an incoming req see
system.mem_ctrls1.wrQLenPdf::7                      0                       # What write queue length does an incoming req see
system.mem_ctrls1.wrQLenPdf::8                      1                       # What write queue length does an incoming req see
system.mem_ctrls1.wrQLenPdf::9                      1                       # What write queue length does an incoming req see
system.mem_ctrls1.wrQLenPdf::10                     1                       # What write queue length does an incoming req see
system.mem_ctrls1.wrQLenPdf::11                     1                       # What write queue length does an incoming req see
system.mem_ctrls1.wrQLenPdf::12                     1                       # What write queue length does an incoming req see
system.mem_ctrls1.wrQLenPdf::13                     1                       # What write queue length does an incoming req see
system.mem_ctrls1.wrQLenPdf::14                     1                       # What write queue length does an incoming req see
system.mem_ctrls1.wrQLenPdf::15                 56064                       # What write queue length does an incoming req see
system.mem_ctrls1.wrQLenPdf::16                 59315                       # What write queue length does an incoming req see
system.mem_ctrls1.wrQLenPdf::17                 72688                       # What write queue length does an incoming req see
system.mem_ctrls1.wrQLenPdf::18                 76810                       # What write queue length does an incoming req see
system.mem_ctrls1.wrQLenPdf::19                 76986                       # What write queue length does an incoming req see
system.mem_ctrls1.wrQLenPdf::20                 76975                       # What write queue length does an incoming req see
system.mem_ctrls1.wrQLenPdf::21                 76909                       # What write queue length does an incoming req see
system.mem_ctrls1.wrQLenPdf::22                 76827                       # What write queue length does an incoming req see
system.mem_ctrls1.wrQLenPdf::23                 76803                       # What write queue length does an incoming req see
system.mem_ctrls1.wrQLenPdf::24                 76786                       # What write queue length does an incoming req see
system.mem_ctrls1.wrQLenPdf::25                 76696                       # What write queue length does an incoming req see
system.mem_ctrls1.wrQLenPdf::26                 76702                       # What write queue length does an incoming req see
system.mem_ctrls1.wrQLenPdf::27                 76427                       # What write queue length does an incoming req see
system.mem_ctrls1.wrQLenPdf::28                 76322                       # What write queue length does an incoming req see
system.mem_ctrls1.wrQLenPdf::29                 76253                       # What write queue length does an incoming req see
system.mem_ctrls1.wrQLenPdf::30                 75932                       # What write queue length does an incoming req see
system.mem_ctrls1.wrQLenPdf::31                 75856                       # What write queue length does an incoming req see
system.mem_ctrls1.wrQLenPdf::32                 75850                       # What write queue length does an incoming req see
system.mem_ctrls1.wrQLenPdf::33                   175                       # What write queue length does an incoming req see
system.mem_ctrls1.wrQLenPdf::34                    36                       # What write queue length does an incoming req see
system.mem_ctrls1.wrQLenPdf::35                     4                       # What write queue length does an incoming req see
system.mem_ctrls1.wrQLenPdf::36                     1                       # What write queue length does an incoming req see
system.mem_ctrls1.wrQLenPdf::37                     1                       # What write queue length does an incoming req see
system.mem_ctrls1.wrQLenPdf::38                     1                       # What write queue length does an incoming req see
system.mem_ctrls1.wrQLenPdf::39                     1                       # What write queue length does an incoming req see
system.mem_ctrls1.wrQLenPdf::40                     0                       # What write queue length does an incoming req see
system.mem_ctrls1.wrQLenPdf::41                     0                       # What write queue length does an incoming req see
system.mem_ctrls1.wrQLenPdf::42                     0                       # What write queue length does an incoming req see
system.mem_ctrls1.wrQLenPdf::43                     0                       # What write queue length does an incoming req see
system.mem_ctrls1.wrQLenPdf::44                     0                       # What write queue length does an incoming req see
system.mem_ctrls1.wrQLenPdf::45                     0                       # What write queue length does an incoming req see
system.mem_ctrls1.wrQLenPdf::46                     0                       # What write queue length does an incoming req see
system.mem_ctrls1.wrQLenPdf::47                     0                       # What write queue length does an incoming req see
system.mem_ctrls1.wrQLenPdf::48                     0                       # What write queue length does an incoming req see
system.mem_ctrls1.wrQLenPdf::49                     0                       # What write queue length does an incoming req see
system.mem_ctrls1.wrQLenPdf::50                     0                       # What write queue length does an incoming req see
system.mem_ctrls1.wrQLenPdf::51                     0                       # What write queue length does an incoming req see
system.mem_ctrls1.wrQLenPdf::52                     0                       # What write queue length does an incoming req see
system.mem_ctrls1.wrQLenPdf::53                     0                       # What write queue length does an incoming req see
system.mem_ctrls1.wrQLenPdf::54                     0                       # What write queue length does an incoming req see
system.mem_ctrls1.wrQLenPdf::55                     0                       # What write queue length does an incoming req see
system.mem_ctrls1.wrQLenPdf::56                     0                       # What write queue length does an incoming req see
system.mem_ctrls1.wrQLenPdf::57                     0                       # What write queue length does an incoming req see
system.mem_ctrls1.wrQLenPdf::58                     0                       # What write queue length does an incoming req see
system.mem_ctrls1.wrQLenPdf::59                     0                       # What write queue length does an incoming req see
system.mem_ctrls1.wrQLenPdf::60                     0                       # What write queue length does an incoming req see
system.mem_ctrls1.wrQLenPdf::61                     0                       # What write queue length does an incoming req see
system.mem_ctrls1.wrQLenPdf::62                     0                       # What write queue length does an incoming req see
system.mem_ctrls1.wrQLenPdf::63                     0                       # What write queue length does an incoming req see
system.mem_ctrls1.bytesPerActivate::samples      1930758                       # Bytes accessed per row activation
system.mem_ctrls1.bytesPerActivate::mean   141.750222                       # Bytes accessed per row activation
system.mem_ctrls1.bytesPerActivate::gmean    90.067777                       # Bytes accessed per row activation
system.mem_ctrls1.bytesPerActivate::stdev   211.221554                       # Bytes accessed per row activation
system.mem_ctrls1.bytesPerActivate::0-127      1525787     79.03%     79.03% # Bytes accessed per row activation
system.mem_ctrls1.bytesPerActivate::128-255       159184      8.24%     87.27% # Bytes accessed per row activation
system.mem_ctrls1.bytesPerActivate::256-383        62697      3.25%     90.52% # Bytes accessed per row activation
system.mem_ctrls1.bytesPerActivate::384-511        39358      2.04%     92.56% # Bytes accessed per row activation
system.mem_ctrls1.bytesPerActivate::512-639        34948      1.81%     94.37% # Bytes accessed per row activation
system.mem_ctrls1.bytesPerActivate::640-767        15565      0.81%     95.17% # Bytes accessed per row activation
system.mem_ctrls1.bytesPerActivate::768-895        24271      1.26%     96.43% # Bytes accessed per row activation
system.mem_ctrls1.bytesPerActivate::896-1023         9445      0.49%     96.92% # Bytes accessed per row activation
system.mem_ctrls1.bytesPerActivate::1024-1151        59503      3.08%    100.00% # Bytes accessed per row activation
system.mem_ctrls1.bytesPerActivate::total      1930758                       # Bytes accessed per row activation
system.mem_ctrls1.rdPerTurnAround::samples        75848                       # Reads before turning the bus around for writes
system.mem_ctrls1.rdPerTurnAround::mean     38.869238                       # Reads before turning the bus around for writes
system.mem_ctrls1.rdPerTurnAround::stdev  1389.486605                       # Reads before turning the bus around for writes
system.mem_ctrls1.rdPerTurnAround::0-8191        75842     99.99%     99.99% # Reads before turning the bus around for writes
system.mem_ctrls1.rdPerTurnAround::8192-16383            2      0.00%     99.99% # Reads before turning the bus around for writes
system.mem_ctrls1.rdPerTurnAround::49152-57343            1      0.00%    100.00% # Reads before turning the bus around for writes
system.mem_ctrls1.rdPerTurnAround::180224-188415            1      0.00%    100.00% # Reads before turning the bus around for writes
system.mem_ctrls1.rdPerTurnAround::212992-221183            1      0.00%    100.00% # Reads before turning the bus around for writes
system.mem_ctrls1.rdPerTurnAround::245760-253951            1      0.00%    100.00% # Reads before turning the bus around for writes
system.mem_ctrls1.rdPerTurnAround::total        75848                       # Reads before turning the bus around for writes
system.mem_ctrls1.wrPerTurnAround::samples        75848                       # Writes before turning the bus around for reads
system.mem_ctrls1.wrPerTurnAround::mean     17.619713                       # Writes before turning the bus around for reads
system.mem_ctrls1.wrPerTurnAround::gmean    17.593046                       # Writes before turning the bus around for reads
system.mem_ctrls1.wrPerTurnAround::stdev     0.959453                       # Writes before turning the bus around for reads
system.mem_ctrls1.wrPerTurnAround::16           16887     22.26%     22.26% # Writes before turning the bus around for reads
system.mem_ctrls1.wrPerTurnAround::17            2244      2.96%     25.22% # Writes before turning the bus around for reads
system.mem_ctrls1.wrPerTurnAround::18           50977     67.21%     92.43% # Writes before turning the bus around for reads
system.mem_ctrls1.wrPerTurnAround::19            4617      6.09%     98.52% # Writes before turning the bus around for reads
system.mem_ctrls1.wrPerTurnAround::20             902      1.19%     99.71% # Writes before turning the bus around for reads
system.mem_ctrls1.wrPerTurnAround::21             171      0.23%     99.93% # Writes before turning the bus around for reads
system.mem_ctrls1.wrPerTurnAround::22              27      0.04%     99.97% # Writes before turning the bus around for reads
system.mem_ctrls1.wrPerTurnAround::23              16      0.02%     99.99% # Writes before turning the bus around for reads
system.mem_ctrls1.wrPerTurnAround::24               3      0.00%     99.99% # Writes before turning the bus around for reads
system.mem_ctrls1.wrPerTurnAround::25               1      0.00%    100.00% # Writes before turning the bus around for reads
system.mem_ctrls1.wrPerTurnAround::26               1      0.00%    100.00% # Writes before turning the bus around for reads
system.mem_ctrls1.wrPerTurnAround::27               1      0.00%    100.00% # Writes before turning the bus around for reads
system.mem_ctrls1.wrPerTurnAround::28               1      0.00%    100.00% # Writes before turning the bus around for reads
system.mem_ctrls1.wrPerTurnAround::total        75848                       # Writes before turning the bus around for reads
system.mem_ctrls1.totQLat                 33303727000                       # Total ticks spent queuing
system.mem_ctrls1.totMemAccLat            88427264500                       # Total ticks spent from burst creation until serviced by the DRAM
system.mem_ctrls1.totBusLat               14699610000                       # Total ticks spent in databus transfers
system.mem_ctrls1.avgQLat                    11328.10                       # Average queueing delay per DRAM burst
system.mem_ctrls1.avgBusLat                   5000.00                       # Average bus latency per DRAM burst
system.mem_ctrls1.avgMemAccLat               30078.10                       # Average memory access latency per DRAM burst
system.mem_ctrls1.avgRdBW                      107.12                       # Average DRAM read bandwidth in MiByte/s
system.mem_ctrls1.avgWrBW                       48.69                       # Average achieved write bandwidth in MiByte/s
system.mem_ctrls1.avgRdBWSys                   107.15                       # Average system read bandwidth in MiByte/s
system.mem_ctrls1.avgWrBWSys                    48.70                       # Average system write bandwidth in MiByte/s
system.mem_ctrls1.peakBW                     12800.00                       # Theoretical peak bandwidth in MiByte/s
system.mem_ctrls1.busUtil                        1.22                       # Data bus utilization in percentage
system.mem_ctrls1.busUtilRead                    0.84                       # Data bus utilization in percentage for reads
system.mem_ctrls1.busUtilWrite                   0.38                       # Data bus utilization in percentage for writes
system.mem_ctrls1.avgRdQLen                      1.00                       # Average read queue length when enqueuing
system.mem_ctrls1.avgWrQLen                     24.50                       # Average write queue length when enqueuing
system.mem_ctrls1.readRowHits                 1848510                       # Number of row buffer hits during reads
system.mem_ctrls1.writeRowHits                 497066                       # Number of row buffer hits during writes
system.mem_ctrls1.readRowHitRate                62.88                       # Row buffer hit rate for reads
system.mem_ctrls1.writeRowHitRate               37.19                       # Row buffer hit rate for writes
system.mem_ctrls1.avgGap                    410659.55                       # Average gap between requests
system.mem_ctrls1.pageHitRate                   54.85                       # Row buffer hit rate, read and write combined
system.mem_ctrls1_0.actEnergy              7300314000                       # Energy for activate commands per rank (pJ)
system.mem_ctrls1_0.preEnergy              3983306250                       # Energy for precharge commands per rank (pJ)
system.mem_ctrls1_0.readEnergy            11485008600                       # Energy for read commands per rank (pJ)
system.mem_ctrls1_0.writeEnergy            4324635360                       # Energy for write commands per rank (pJ)
system.mem_ctrls1_0.refreshEnergy        114951342480                       # Energy for refresh commands per rank (pJ)
system.mem_ctrls1_0.actBackEnergy        550443811005                       # Energy for active background per rank (pJ)
system.mem_ctrls1_0.preBackEnergy        573124375500                       # Energy for precharge background per rank (pJ)
system.mem_ctrls1_0.totalEnergy          1265612793195                       # Total energy per rank (pJ)
system.mem_ctrls1_0.averagePower           719.118727                       # Core power per rank (mW)
system.mem_ctrls1_0.memoryStateTime::IDLE 948189648250                       # Time in different power states
system.mem_ctrls1_0.memoryStateTime::REF  58653140000                       # Time in different power states
system.mem_ctrls1_0.memoryStateTime::PRE_PDN            0                       # Time in different power states
system.mem_ctrls1_0.memoryStateTime::ACT 749651300250                       # Time in different power states
system.mem_ctrls1_0.memoryStateTime::ACT_PDN            0                       # Time in different power states
system.mem_ctrls1_1.actEnergy              7315743960                       # Energy for activate commands per rank (pJ)
system.mem_ctrls1_1.preEnergy              3991725375                       # Energy for precharge commands per rank (pJ)
system.mem_ctrls1_1.readEnergy            11510569200                       # Energy for read commands per rank (pJ)
system.mem_ctrls1_1.writeEnergy            4335249600                       # Energy for write commands per rank (pJ)
system.mem_ctrls1_1.refreshEnergy        114951342480                       # Energy for refresh commands per rank (pJ)
system.mem_ctrls1_1.actBackEnergy        552059334360                       # Energy for active background per rank (pJ)
system.mem_ctrls1_1.preBackEnergy        571707249750                       # Energy for precharge background per rank (pJ)
system.mem_ctrls1_1.totalEnergy          1265871214725                       # Total energy per rank (pJ)
system.mem_ctrls1_1.averagePower           719.265562                       # Core power per rank (mW)
system.mem_ctrls1_1.memoryStateTime::IDLE 946486744750                       # Time in different power states
system.mem_ctrls1_1.memoryStateTime::REF  58653140000                       # Time in different power states
system.mem_ctrls1_1.memoryStateTime::PRE_PDN            0                       # Time in different power states
system.mem_ctrls1_1.memoryStateTime::ACT 751352466500                       # Time in different power states
system.mem_ctrls1_1.memoryStateTime::ACT_PDN            0                       # Time in different power states
system.cpu_voltage_domain.voltage                   1                       # Voltage in Volts
system.cpu_clk_domain.clock                       500                       # Clock period in ticks
system.cpu0.apic_clk_domain.clock                8000                       # Clock period in ticks
system.cpu0.numCycles                      3508709626                       # number of cpu cycles simulated
system.cpu0.numWorkItemsStarted                     0                       # number of work items this cpu started
system.cpu0.numWorkItemsCompleted                   0                       # number of work items this cpu completed
system.cpu0.kern.inst.arm                           0                       # number of arm instructions executed
system.cpu0.kern.inst.quiesce                       0                       # number of quiesce instructions executed
system.cpu0.committedInsts                    1392412                       # Number of instructions committed
system.cpu0.committedOps                      3039425                       # Number of ops (including micro ops) committed
system.cpu0.num_int_alu_accesses              2974003                       # Number of integer alu accesses
system.cpu0.num_fp_alu_accesses                     0                       # Number of float alu accesses
system.cpu0.num_func_calls                      90162                       # number of times a function call or return occured
system.cpu0.num_conditional_control_insts       199866                       # number of instructions that are conditional controls
system.cpu0.num_int_insts                     2974003                       # number of integer instructions
system.cpu0.num_fp_insts                            0                       # number of float instructions
system.cpu0.num_int_register_reads            6043746                       # number of times the integer registers were read
system.cpu0.num_int_register_writes           2464344                       # number of times the integer registers were written
system.cpu0.num_fp_register_reads                   0                       # number of times the floating registers were read
system.cpu0.num_fp_register_writes                  0                       # number of times the floating registers were written
system.cpu0.num_cc_register_reads             1672003                       # number of times the CC registers were read
system.cpu0.num_cc_register_writes             907670                       # number of times the CC registers were written
system.cpu0.num_mem_refs                       717623                       # number of memory refs
system.cpu0.num_load_insts                     443011                       # Number of load instructions
system.cpu0.num_store_insts                    274612                       # Number of store instructions
system.cpu0.num_idle_cycles              3502581049.755062                       # Number of idle cycles
system.cpu0.num_busy_cycles              6128576.244938                       # Number of busy cycles
system.cpu0.not_idle_fraction                0.001747                       # Percentage of non-idle cycles
system.cpu0.idle_fraction                    0.998253                       # Percentage of idle cycles
system.cpu0.Branches                           317386                       # Number of branches fetched
system.cpu0.op_class::No_OpClass                52558      1.73%      1.73% # Class of executed instruction
system.cpu0.op_class::IntAlu                  2245939     73.89%     75.62% # Class of executed instruction
system.cpu0.op_class::IntMult                    5731      0.19%     75.81% # Class of executed instruction
system.cpu0.op_class::IntDiv                    17577      0.58%     76.39% # Class of executed instruction
system.cpu0.op_class::FloatAdd                      0      0.00%     76.39% # Class of executed instruction
system.cpu0.op_class::FloatCmp                      0      0.00%     76.39% # Class of executed instruction
system.cpu0.op_class::FloatCvt                      0      0.00%     76.39% # Class of executed instruction
system.cpu0.op_class::FloatMult                     0      0.00%     76.39% # Class of executed instruction
system.cpu0.op_class::FloatDiv                      0      0.00%     76.39% # Class of executed instruction
system.cpu0.op_class::FloatSqrt                     0      0.00%     76.39% # Class of executed instruction
system.cpu0.op_class::SimdAdd                       0      0.00%     76.39% # Class of executed instruction
system.cpu0.op_class::SimdAddAcc                    0      0.00%     76.39% # Class of executed instruction
system.cpu0.op_class::SimdAlu                       0      0.00%     76.39% # Class of executed instruction
system.cpu0.op_class::SimdCmp                       0      0.00%     76.39% # Class of executed instruction
system.cpu0.op_class::SimdCvt                       0      0.00%     76.39% # Class of executed instruction
system.cpu0.op_class::SimdMisc                      0      0.00%     76.39% # Class of executed instruction
system.cpu0.op_class::SimdMult                      0      0.00%     76.39% # Class of executed instruction
system.cpu0.op_class::SimdMultAcc                   0      0.00%     76.39% # Class of executed instruction
system.cpu0.op_class::SimdShift                     0      0.00%     76.39% # Class of executed instruction
system.cpu0.op_class::SimdShiftAcc                  0      0.00%     76.39% # Class of executed instruction
system.cpu0.op_class::SimdSqrt                      0      0.00%     76.39% # Class of executed instruction
system.cpu0.op_class::SimdFloatAdd                  0      0.00%     76.39% # Class of executed instruction
system.cpu0.op_class::SimdFloatAlu                  0      0.00%     76.39% # Class of executed instruction
system.cpu0.op_class::SimdFloatCmp                  0      0.00%     76.39% # Class of executed instruction
system.cpu0.op_class::SimdFloatCvt                  0      0.00%     76.39% # Class of executed instruction
system.cpu0.op_class::SimdFloatDiv                  0      0.00%     76.39% # Class of executed instruction
system.cpu0.op_class::SimdFloatMisc                 0      0.00%     76.39% # Class of executed instruction
system.cpu0.op_class::SimdFloatMult                 0      0.00%     76.39% # Class of executed instruction
system.cpu0.op_class::SimdFloatMultAcc              0      0.00%     76.39% # Class of executed instruction
system.cpu0.op_class::SimdFloatSqrt                 0      0.00%     76.39% # Class of executed instruction
system.cpu0.op_class::MemRead                  443011     14.58%     90.97% # Class of executed instruction
system.cpu0.op_class::MemWrite                 274612      9.03%    100.00% # Class of executed instruction
system.cpu0.op_class::IprAccess                     0      0.00%    100.00% # Class of executed instruction
system.cpu0.op_class::InstPrefetch                  0      0.00%    100.00% # Class of executed instruction
system.cpu0.op_class::total                   3039428                       # Class of executed instruction
system.cpu1.apic_clk_domain.clock                8000                       # Clock period in ticks
system.cpu1.numCycles                      3512553513                       # number of cpu cycles simulated
system.cpu1.numWorkItemsStarted                     0                       # number of work items this cpu started
system.cpu1.numWorkItemsCompleted                   0                       # number of work items this cpu completed
system.cpu1.kern.inst.arm                           0                       # number of arm instructions executed
system.cpu1.kern.inst.quiesce                       0                       # number of quiesce instructions executed
system.cpu1.committedInsts                    3828542                       # Number of instructions committed
system.cpu1.committedOps                      7656833                       # Number of ops (including micro ops) committed
system.cpu1.num_int_alu_accesses              7519444                       # Number of integer alu accesses
system.cpu1.num_fp_alu_accesses                  1778                       # Number of float alu accesses
system.cpu1.num_func_calls                     199496                       # number of times a function call or return occured
system.cpu1.num_conditional_control_insts       645432                       # number of instructions that are conditional controls
system.cpu1.num_int_insts                     7519444                       # number of integer instructions
system.cpu1.num_fp_insts                         1778                       # number of float instructions
system.cpu1.num_int_register_reads           14962374                       # number of times the integer registers were read
system.cpu1.num_int_register_writes           6117908                       # number of times the integer registers were written
system.cpu1.num_fp_register_reads                2988                       # number of times the floating registers were read
system.cpu1.num_fp_register_writes               1416                       # number of times the floating registers were written
system.cpu1.num_cc_register_reads             4831736                       # number of times the CC registers were read
system.cpu1.num_cc_register_writes            2605850                       # number of times the CC registers were written
system.cpu1.num_mem_refs                      1732897                       # number of memory refs
system.cpu1.num_load_insts                    1124425                       # Number of load instructions
system.cpu1.num_store_insts                    608472                       # Number of store instructions
system.cpu1.num_idle_cycles              3496083136.319929                       # Number of idle cycles
system.cpu1.num_busy_cycles              16470376.680071                       # Number of busy cycles
system.cpu1.not_idle_fraction                0.004689                       # Percentage of non-idle cycles
system.cpu1.idle_fraction                    0.995311                       # Percentage of idle cycles
system.cpu1.Branches                           880631                       # Number of branches fetched
system.cpu1.op_class::No_OpClass                54649      0.71%      0.71% # Class of executed instruction
system.cpu1.op_class::IntAlu                  5842361     76.30%     77.02% # Class of executed instruction
system.cpu1.op_class::IntMult                    7644      0.10%     77.12% # Class of executed instruction
system.cpu1.op_class::IntDiv                    18027      0.24%     77.35% # Class of executed instruction
system.cpu1.op_class::FloatAdd                   1344      0.02%     77.37% # Class of executed instruction
system.cpu1.op_class::FloatCmp                      0      0.00%     77.37% # Class of executed instruction
system.cpu1.op_class::FloatCvt                      0      0.00%     77.37% # Class of executed instruction
system.cpu1.op_class::FloatMult                     0      0.00%     77.37% # Class of executed instruction
system.cpu1.op_class::FloatDiv                      0      0.00%     77.37% # Class of executed instruction
system.cpu1.op_class::FloatSqrt                     0      0.00%     77.37% # Class of executed instruction
system.cpu1.op_class::SimdAdd                       0      0.00%     77.37% # Class of executed instruction
system.cpu1.op_class::SimdAddAcc                    0      0.00%     77.37% # Class of executed instruction
system.cpu1.op_class::SimdAlu                       0      0.00%     77.37% # Class of executed instruction
system.cpu1.op_class::SimdCmp                       0      0.00%     77.37% # Class of executed instruction
system.cpu1.op_class::SimdCvt                       0      0.00%     77.37% # Class of executed instruction
system.cpu1.op_class::SimdMisc                      0      0.00%     77.37% # Class of executed instruction
system.cpu1.op_class::SimdMult                      0      0.00%     77.37% # Class of executed instruction
system.cpu1.op_class::SimdMultAcc                   0      0.00%     77.37% # Class of executed instruction
system.cpu1.op_class::SimdShift                     0      0.00%     77.37% # Class of executed instruction
system.cpu1.op_class::SimdShiftAcc                  0      0.00%     77.37% # Class of executed instruction
system.cpu1.op_class::SimdSqrt                      0      0.00%     77.37% # Class of executed instruction
system.cpu1.op_class::SimdFloatAdd                  0      0.00%     77.37% # Class of executed instruction
system.cpu1.op_class::SimdFloatAlu                  0      0.00%     77.37% # Class of executed instruction
system.cpu1.op_class::SimdFloatCmp                  0      0.00%     77.37% # Class of executed instruction
system.cpu1.op_class::SimdFloatCvt                  0      0.00%     77.37% # Class of executed instruction
system.cpu1.op_class::SimdFloatDiv                  0      0.00%     77.37% # Class of executed instruction
system.cpu1.op_class::SimdFloatMisc                 0      0.00%     77.37% # Class of executed instruction
system.cpu1.op_class::SimdFloatMult                 0      0.00%     77.37% # Class of executed instruction
system.cpu1.op_class::SimdFloatMultAcc              0      0.00%     77.37% # Class of executed instruction
system.cpu1.op_class::SimdFloatSqrt                 0      0.00%     77.37% # Class of executed instruction
system.cpu1.op_class::MemRead                 1124425     14.69%     92.05% # Class of executed instruction
system.cpu1.op_class::MemWrite                 608472      7.95%    100.00% # Class of executed instruction
system.cpu1.op_class::IprAccess                     0      0.00%    100.00% # Class of executed instruction
system.cpu1.op_class::InstPrefetch                  0      0.00%    100.00% # Class of executed instruction
system.cpu1.op_class::total                   7656922                       # Class of executed instruction
system.cpu2.apic_clk_domain.clock                8000                       # Clock period in ticks
system.cpu2.numCycles                      3516307526                       # number of cpu cycles simulated
system.cpu2.numWorkItemsStarted                     0                       # number of work items this cpu started
system.cpu2.numWorkItemsCompleted                   0                       # number of work items this cpu completed
system.cpu2.kern.inst.arm                           0                       # number of arm instructions executed
system.cpu2.kern.inst.quiesce                       0                       # number of quiesce instructions executed
system.cpu2.committedInsts                    1284127                       # Number of instructions committed
system.cpu2.committedOps                      2765713                       # Number of ops (including micro ops) committed
system.cpu2.num_int_alu_accesses              2704136                       # Number of integer alu accesses
system.cpu2.num_fp_alu_accesses                    39                       # Number of float alu accesses
system.cpu2.num_func_calls                      75598                       # number of times a function call or return occured
system.cpu2.num_conditional_control_insts       195397                       # number of instructions that are conditional controls
[...]
system.ruby.L1Cache_Controller.S.Inv::total         6518                      
system.ruby.L1Cache_Controller.O.Load    |         620      6.66%      6.66% |        5049     54.20%     60.86% |        1032     11.08%     71.94% |        2614     28.06%    100.00%
system.ruby.L1Cache_Controller.O.Load::total         9315                      
system.ruby.L1Cache_Controller.O.Store   |          50     31.85%     31.85% |          30     19.11%     50.96% |          37     23.57%     74.52% |          40     25.48%    100.00%
system.ruby.L1Cache_Controller.O.Store::total          157                      
system.ruby.L1Cache_Controller.O.L1_Replacement |         125     20.49%     20.49% |         136     22.30%     42.79% |         198     32.46%     75.25% |         151     24.75%    100.00%
system.ruby.L1Cache_Controller.O.L1_Replacement::total          610                      
system.ruby.L1Cache_Controller.O.Fwd_GETX |        1819     20.76%     20.76% |        4517     51.55%     72.30% |        1967     22.45%     94.75% |         460      5.25%    100.00%
system.ruby.L1Cache_Controller.O.Fwd_GETX::total         8763                      
system.ruby.L1Cache_Controller.O.Fwd_GETS |         625      9.60%      9.60% |        4562     70.07%     79.67% |        1045     16.05%     95.71% |         279      4.29%    100.00%
system.ruby.L1Cache_Controller.O.Fwd_GETS::total         6511                      
system.ruby.L1Cache_Controller.M.Load    |       40040      0.42%      0.42% |      205904      2.15%      2.57% |       72723      0.76%      3.33% |     9241740     96.67%    100.00%
system.ruby.L1Cache_Controller.M.Load::total      9560407                      
system.ruby.L1Cache_Controller.M.Store   |        3031      0.10%      0.10% |       60626      1.99%      2.09% |        4460      0.15%      2.24% |     2973200     97.76%    100.00%
system.ruby.L1Cache_Controller.M.Store::total      3041317                      
system.ruby.L1Cache_Controller.M.L1_Replacement |        2995      0.11%      0.11% |       26859      1.00%      1.11% |        3981      0.15%      1.25% |     2665323     98.75%    100.00%
system.ruby.L1Cache_Controller.M.L1_Replacement::total      2699158                      
system.ruby.L1Cache_Controller.M.Fwd_GETX |         211     17.42%     17.42% |         203     16.76%     34.19% |         208     17.18%     51.36% |         589     48.64%    100.00%
system.ruby.L1Cache_Controller.M.Fwd_GETX::total         1211                      
system.ruby.L1Cache_Controller.M.Fwd_GETS |        1967     20.65%     20.65% |        4704     49.39%     70.04% |        2197     23.07%     93.11% |         656      6.89%    100.00%
system.ruby.L1Cache_Controller.M.Fwd_GETS::total         9524                      
system.ruby.L1Cache_Controller.M_W.Load  |        6698      4.77%      4.77% |      101371     72.14%     76.91% |        8373      5.96%     82.86% |       24079     17.14%    100.00%
system.ruby.L1Cache_Controller.M_W.Load::total       140521                      
system.ruby.L1Cache_Controller.M_W.Store |         878      0.08%      0.08% |        8136      0.79%      0.87% |        1052      0.10%      0.97% |     1025387     99.03%    100.00%
system.ruby.L1Cache_Controller.M_W.Store::total      1035453                      
system.ruby.L1Cache_Controller.M_W.L1_Replacement |           8      2.49%      2.49% |          23      7.17%      9.66% |           0      0.00%      9.66% |         290     90.34%    100.00%
system.ruby.L1Cache_Controller.M_W.L1_Replacement::total          321                      
system.ruby.L1Cache_Controller.M_W.Fwd_GETX |          39     75.00%     75.00% |           9     17.31%     92.31% |           4      7.69%    100.00% |           0      0.00%    100.00%
system.ruby.L1Cache_Controller.M_W.Fwd_GETX::total           52                      
system.ruby.L1Cache_Controller.M_W.Fwd_GETS |         125     40.19%     40.19% |          64     20.58%     60.77% |          71     22.83%     83.60% |          51     16.40%    100.00%
system.ruby.L1Cache_Controller.M_W.Fwd_GETS::total          311                      
system.ruby.L1Cache_Controller.M_W.Use_Timeout |        8254      0.14%      0.14% |       92403      1.61%      1.75% |       10867      0.19%      1.94% |     5639748     98.06%    100.00%
system.ruby.L1Cache_Controller.M_W.Use_Timeout::total      5751272                      
system.ruby.L1Cache_Controller.MM.Load   |      494779      3.03%      3.03% |     2240539     13.71%     16.74% |      618176      3.78%     20.53% |    12983080     79.47%    100.00%
system.ruby.L1Cache_Controller.MM.Load::total     16336574                      
system.ruby.L1Cache_Controller.MM.Store  |      493613      0.81%      0.81% |     2151535      3.53%      4.34% |      683105      1.12%      5.46% |    57595661     94.54%    100.00%
system.ruby.L1Cache_Controller.MM.Store::total     60923914                      
system.ruby.L1Cache_Controller.MM.L1_Replacement |       14353      0.10%      0.10% |      125517      0.90%      1.00% |       20806      0.15%      1.15% |    13763802     98.85%    100.00%
system.ruby.L1Cache_Controller.MM.L1_Replacement::total     13924478                      
system.ruby.L1Cache_Controller.MM.Fwd_GETX |         605     22.95%     22.95% |         860     32.63%     55.58% |         533     20.22%     75.80% |         638     24.20%    100.00%
system.ruby.L1Cache_Controller.MM.Fwd_GETX::total         2636                      
system.ruby.L1Cache_Controller.MM.Fwd_GETS |        4449     46.75%     46.75% |        1954     20.53%     67.29% |        1658     17.42%     84.71% |        1455     15.29%    100.00%
system.ruby.L1Cache_Controller.MM.Fwd_GETS::total         9516                      
system.ruby.L1Cache_Controller.MM.Fwd_DMA |           0      0.00%      0.00% |           0      0.00%      0.00% |           2    100.00%    100.00% |           0      0.00%    100.00%
system.ruby.L1Cache_Controller.MM.Fwd_DMA::total            2                      
system.ruby.L1Cache_Controller.MM_W.Load |        1897      4.61%      4.61% |        8904     21.64%     26.25% |        1416      3.44%     29.69% |       28927     70.31%    100.00%
system.ruby.L1Cache_Controller.MM_W.Load::total        41144                      
system.ruby.L1Cache_Controller.MM_W.Store |       58122      0.66%      0.66% |       76715      0.87%      1.53% |       78068      0.89%      2.41% |     8606272     97.59%    100.00%
system.ruby.L1Cache_Controller.MM_W.Store::total      8819177                      
system.ruby.L1Cache_Controller.MM_W.L1_Replacement |           0      0.00%      0.00% |           2      0.27%      0.27% |           0      0.00%      0.27% |         729     99.73%    100.00%
system.ruby.L1Cache_Controller.MM_W.L1_Replacement::total          731                      
system.ruby.L1Cache_Controller.MM_W.Fwd_GETX |          12     92.31%     92.31% |           0      0.00%     92.31% |           0      0.00%     92.31% |           1      7.69%    100.00%
system.ruby.L1Cache_Controller.MM_W.Fwd_GETX::total           13                      
system.ruby.L1Cache_Controller.MM_W.Fwd_GETS |         321     33.09%     33.09% |          72      7.42%     40.52% |         300     30.93%     71.44% |         277     28.56%    100.00%
system.ruby.L1Cache_Controller.MM_W.Fwd_GETS::total          970                      
system.ruby.L1Cache_Controller.MM_W.Use_Timeout |       16540      0.15%      0.15% |       67549      0.62%      0.77% |       18967      0.17%      0.95% |    10792458     99.05%    100.00%
system.ruby.L1Cache_Controller.MM_W.Use_Timeout::total     10895514                      
system.ruby.L1Cache_Controller.IM.Ack    |        3913     39.85%     39.85% |        2018     20.55%     60.40% |        2216     22.57%     82.97% |        1672     17.03%    100.00%
system.ruby.L1Cache_Controller.IM.Ack::total         9819                      
system.ruby.L1Cache_Controller.IM.Exclusive_Data |       11994      0.12%      0.12% |       52823      0.54%      0.66% |       13079      0.13%      0.79% |     9740361     99.21%    100.00%
system.ruby.L1Cache_Controller.IM.Exclusive_Data::total      9818257                      
system.ruby.L1Cache_Controller.SM.Ack    |        3902     54.67%     54.67% |        1215     17.02%     71.69% |         664      9.30%     80.99% |        1357     19.01%    100.00%
system.ruby.L1Cache_Controller.SM.Ack::total         7138                      
system.ruby.L1Cache_Controller.SM.Exclusive_Data |        3618      8.69%      8.69% |        6560     15.75%     24.44% |        4799     11.52%     35.96% |       26670     64.04%    100.00%
system.ruby.L1Cache_Controller.SM.Exclusive_Data::total        41647                      
system.ruby.L1Cache_Controller.OM.Own_GETX |          50     31.85%     31.85% |          30     19.11%     50.96% |          37     23.57%     74.52% |          40     25.48%    100.00%
system.ruby.L1Cache_Controller.OM.Own_GETX::total          157                      
system.ruby.L1Cache_Controller.OM.Ack    |        1011     43.43%     43.43% |         161      6.92%     50.34% |         564     24.23%     74.57% |         592     25.43%    100.00%
system.ruby.L1Cache_Controller.OM.Ack::total         2328                      
system.ruby.L1Cache_Controller.OM.All_acks |       15662      0.16%      0.16% |       59413      0.60%      0.76% |       17915      0.18%      0.94% |     9767071     99.06%    100.00%
system.ruby.L1Cache_Controller.OM.All_acks::total      9860061                      
system.ruby.L1Cache_Controller.IS.Data   |       54408      0.78%      0.78% |       53317      0.77%      1.55% |       65717      0.95%      2.50% |     6777222     97.50%    100.00%
system.ruby.L1Cache_Controller.IS.Data::total      6950664                      
system.ruby.L1Cache_Controller.IS.Exclusive_Data |        9132      0.13%      0.13% |      100539      1.48%      1.62% |       11919      0.18%      1.79% |     6665135     98.21%    100.00%
system.ruby.L1Cache_Controller.IS.Exclusive_Data::total      6786725                      
system.ruby.L1Cache_Controller.SI.Load   |           5     14.71%     14.71% |           4     11.76%     26.47% |           4     11.76%     38.24% |          21     61.76%    100.00%
system.ruby.L1Cache_Controller.SI.Load::total           34                      
system.ruby.L1Cache_Controller.SI.Ifetch |           0      0.00%      0.00% |           0      0.00%      0.00% |           4     66.67%     66.67% |           2     33.33%    100.00%
system.ruby.L1Cache_Controller.SI.Ifetch::total            6                      
system.ruby.L1Cache_Controller.SI.Writeback_Ack |       41847      1.13%      1.13% |       35031      0.95%      2.07% |       47815      1.29%      3.36% |     3581184     96.64%    100.00%
system.ruby.L1Cache_Controller.SI.Writeback_Ack::total      3705877                      
system.ruby.L1Cache_Controller.SI.Writeback_Ack_Data |        7226      0.23%      0.23% |       11032      0.35%      0.57% |        9268      0.29%      0.86% |     3168774     99.14%    100.00%
system.ruby.L1Cache_Controller.SI.Writeback_Ack_Data::total      3196300                      
system.ruby.L1Cache_Controller.OI.Writeback_Ack_Data |         125     20.49%     20.49% |         136     22.30%     42.79% |         198     32.46%     75.25% |         151     24.75%    100.00%
system.ruby.L1Cache_Controller.OI.Writeback_Ack_Data::total          610                      
system.ruby.L1Cache_Controller.MI.Load   |           5     38.46%     38.46% |           2     15.38%     53.85% |           0      0.00%     53.85% |           6     46.15%    100.00%
system.ruby.L1Cache_Controller.MI.Load::total           13                      
system.ruby.L1Cache_Controller.MI.Store  |           0      0.00%      0.00% |           0      0.00%      0.00% |           0      0.00%      0.00% |         823    100.00%    100.00%
system.ruby.L1Cache_Controller.MI.Store::total          823                      
system.ruby.L1Cache_Controller.MI.Writeback_Ack_Data |       17348      0.10%      0.10% |      152376      0.92%      1.02% |       24787      0.15%      1.17% |    16429125     98.83%    100.00%
system.ruby.L1Cache_Controller.MI.Writeback_Ack_Data::total     16623636                      
system.ruby.L2Cache_Controller.L1_GETS       13738245      0.00%      0.00%
system.ruby.L2Cache_Controller.L1_GETX        9860065      0.00%      0.00%
system.ruby.L2Cache_Controller.L1_PUTO            611      0.00%      0.00%
system.ruby.L2Cache_Controller.L1_PUTX       16623636      0.00%      0.00%
system.ruby.L2Cache_Controller.L1_PUTS_only      6756931      0.00%      0.00%
system.ruby.L2Cache_Controller.L1_PUTS         145253      0.00%      0.00%
system.ruby.L2Cache_Controller.Fwd_DMA              2      0.00%      0.00%
system.ruby.L2Cache_Controller.All_Acks       2719910      0.00%      0.00%
system.ruby.L2Cache_Controller.Data           5941059      0.00%      0.00%
system.ruby.L2Cache_Controller.L1_WBCLEANDATA      3196300      0.00%      0.00%
system.ruby.L2Cache_Controller.L1_WBDIRTYDATA     16624246      0.00%      0.00%
system.ruby.L2Cache_Controller.Writeback_Ack      2705072      0.00%      0.00%
system.ruby.L2Cache_Controller.Unblock       10656541      0.00%      0.00%
system.ruby.L2Cache_Controller.Exclusive_Unblock     16646786      0.00%      0.00%
system.ruby.L2Cache_Controller.DmaAck               2      0.00%      0.00%
system.ruby.L2Cache_Controller.L2_Replacement      5891302      0.00%      0.00%
system.ruby.L2Cache_Controller.NP.L1_GETS      3221149      0.00%      0.00%
system.ruby.L2Cache_Controller.NP.L1_GETX      2680926      0.00%      0.00%
system.ruby.L2Cache_Controller.ILS.L1_GETS         6664      0.00%      0.00%
system.ruby.L2Cache_Controller.ILS.L1_GETX        33050      0.00%      0.00%
system.ruby.L2Cache_Controller.ILS.L1_PUTS_only      3188233      0.00%      0.00%
system.ruby.L2Cache_Controller.ILS.L1_PUTS         8067      0.00%      0.00%
system.ruby.L2Cache_Controller.ILX.L1_GETS        19040      0.00%      0.00%
system.ruby.L2Cache_Controller.ILX.L1_GETX         3847      0.00%      0.00%
system.ruby.L2Cache_Controller.ILX.L1_PUTX     16623636      0.00%      0.00%
system.ruby.L2Cache_Controller.ILX.Fwd_DMA            2      0.00%      0.00%
system.ruby.L2Cache_Controller.ILOX.L1_GETS         2961      0.00%      0.00%
system.ruby.L2Cache_Controller.ILOX.L1_GETX          901      0.00%      0.00%
system.ruby.L2Cache_Controller.ILOX.L1_PUTO          378      0.00%      0.00%
system.ruby.L2Cache_Controller.ILOSX.L1_GETS         3550      0.00%      0.00%
system.ruby.L2Cache_Controller.ILOSX.L1_GETX         8019      0.00%      0.00%
system.ruby.L2Cache_Controller.ILOSX.L1_PUTO          232      0.00%      0.00%
system.ruby.L2Cache_Controller.ILOSX.L1_PUTS_only         4256      0.00%      0.00%
system.ruby.L2Cache_Controller.ILOSX.L1_PUTS         1479      0.00%      0.00%
system.ruby.L2Cache_Controller.S.L1_GETS      3568881      0.00%      0.00%
system.ruby.L2Cache_Controller.S.L1_GETX         1934      0.00%      0.00%
system.ruby.L2Cache_Controller.S.L2_Replacement      3177900      0.00%      0.00%
system.ruby.L2Cache_Controller.OLSX.L1_GETS         1973      0.00%      0.00%
system.ruby.L2Cache_Controller.OLSX.L1_GETX           96      0.00%      0.00%
system.ruby.L2Cache_Controller.OLSX.L1_PUTS_only          173      0.00%      0.00%
system.ruby.L2Cache_Controller.OLSX.L1_PUTS         1916      0.00%      0.00%
system.ruby.L2Cache_Controller.OLSX.L2_Replacement           20      0.00%      0.00%
system.ruby.L2Cache_Controller.SLS.L1_GETS       135962      0.00%      0.00%
system.ruby.L2Cache_Controller.SLS.L1_GETX         4000      0.00%      0.00%
system.ruby.L2Cache_Controller.SLS.L1_PUTS_only      3564266      0.00%      0.00%
system.ruby.L2Cache_Controller.SLS.L1_PUTS       133787      0.00%      0.00%
system.ruby.L2Cache_Controller.SLS.L2_Replacement         8330      0.00%      0.00%
system.ruby.L2Cache_Controller.M.L1_GETS      6777209      0.00%      0.00%
system.ruby.L2Cache_Controller.M.L1_GETX      7127288      0.00%      0.00%
system.ruby.L2Cache_Controller.M.L2_Replacement      2705052      0.00%      0.00%
system.ruby.L2Cache_Controller.ILOXW.L1_PUTO            1      0.00%      0.00%
system.ruby.L2Cache_Controller.ILOXW.L1_WBDIRTYDATA          378      0.00%      0.00%
system.ruby.L2Cache_Controller.ILOXW.Unblock         4256      0.00%      0.00%
system.ruby.L2Cache_Controller.ILOSXW.L1_WBDIRTYDATA          232      0.00%      0.00%
system.ruby.L2Cache_Controller.ILOSXW.Unblock         1479      0.00%      0.00%
system.ruby.L2Cache_Controller.SLSW.L1_GETS            1      0.00%      0.00%
system.ruby.L2Cache_Controller.SLSW.L1_PUTS            4      0.00%      0.00%
system.ruby.L2Cache_Controller.SLSW.Unblock       133787      0.00%      0.00%
system.ruby.L2Cache_Controller.ILSW.L1_WBCLEANDATA         8067      0.00%      0.00%
system.ruby.L2Cache_Controller.IW.L1_WBCLEANDATA      3188233      0.00%      0.00%
system.ruby.L2Cache_Controller.SW.Unblock      3564266      0.00%      0.00%
system.ruby.L2Cache_Controller.OXW.Unblock          173      0.00%      0.00%
system.ruby.L2Cache_Controller.OLSXW.Unblock         1916      0.00%      0.00%
system.ruby.L2Cache_Controller.ILXW.L1_WBDIRTYDATA     16623636      0.00%      0.00%
system.ruby.L2Cache_Controller.IFLS.Unblock         6664      0.00%      0.00%
system.ruby.L2Cache_Controller.IFLOX.Unblock         2961      0.00%      0.00%
system.ruby.L2Cache_Controller.IFLOX.Exclusive_Unblock           96      0.00%      0.00%
system.ruby.L2Cache_Controller.IFLOXX.L1_GETS          102      0.00%      0.00%
system.ruby.L2Cache_Controller.IFLOXX.L1_GETX            4      0.00%      0.00%
system.ruby.L2Cache_Controller.IFLOXX.Unblock         9524      0.00%      0.00%
system.ruby.L2Cache_Controller.IFLOXX.Exclusive_Unblock        14264      0.00%      0.00%
system.ruby.L2Cache_Controller.IFLOSX.Unblock         3550      0.00%      0.00%
system.ruby.L2Cache_Controller.IFLXO.L1_GETS           85      0.00%      0.00%
system.ruby.L2Cache_Controller.IFLXO.Exclusive_Unblock         8019      0.00%      0.00%
system.ruby.L2Cache_Controller.IGS.L1_GETS          660      0.00%      0.00%
system.ruby.L2Cache_Controller.IGS.Data       3221149      0.00%      0.00%
system.ruby.L2Cache_Controller.IGS.Unblock      3221149      0.00%      0.00%
system.ruby.L2Cache_Controller.IGM.Data       2682860      0.00%      0.00%
system.ruby.L2Cache_Controller.IGMLS.Data        37050      0.00%      0.00%
system.ruby.L2Cache_Controller.IGMO.All_Acks      2719910      0.00%      0.00%
system.ruby.L2Cache_Controller.IGMO.Exclusive_Unblock      2719910      0.00%      0.00%
system.ruby.L2Cache_Controller.MM.Exclusive_Unblock      7127288      0.00%      0.00%
system.ruby.L2Cache_Controller.SS.L1_GETS            3      0.00%      0.00%
system.ruby.L2Cache_Controller.SS.Unblock      3568881      0.00%      0.00%
system.ruby.L2Cache_Controller.OO.Exclusive_Unblock      6777209      0.00%      0.00%
system.ruby.L2Cache_Controller.OLSXS.Unblock         1973      0.00%      0.00%
system.ruby.L2Cache_Controller.SLSS.L1_GETS            5      0.00%      0.00%
system.ruby.L2Cache_Controller.SLSS.L1_PUTS_only            3      0.00%      0.00%
system.ruby.L2Cache_Controller.SLSS.Unblock       135962      0.00%      0.00%
system.ruby.L2Cache_Controller.MI.Writeback_Ack      2705052      0.00%      0.00%
system.ruby.L2Cache_Controller.OLSI.Writeback_Ack           20      0.00%      0.00%
system.ruby.L2Cache_Controller.ILXD.DmaAck            2      0.00%      0.00%

---------- End Simulation Statistics   ----------
