
---------- Begin Simulation Statistics ----------
sim_seconds                                  2.969403                       # Number of seconds simulated
sim_ticks                                2969403305000                       # Number of ticks simulated
final_tick                               58552810543501                       # Number of ticks from beginning of simulation (restored from checkpoints and never reset)
sim_freq                                 1000000000000                       # Frequency of simulated ticks
host_inst_rate                                 132356                       # Simulator instruction rate (inst/s)
host_op_rate                                   221831                       # Simulator op (including micro ops) rate (op/s)
host_tick_rate                              256255684                       # Simulator tick rate (ticks/s)
host_mem_usage                                2184280                       # Number of bytes of host memory used
host_seconds                                 11587.66                       # Real time elapsed on the host
sim_insts                                  1533697614                       # Number of instructions simulated
sim_ops                                    2570505925                       # Number of ops (including micro ops) simulated
system.voltage_domain.voltage                       1                       # Voltage in Volts
system.clk_domain.clock                          1000                       # Clock period in ticks
system.mem_ctrls.bytes_read::ruby.dir_cntrl0      9864128                       # Number of bytes read from this memory
system.mem_ctrls.bytes_read::total            9864128                       # Number of bytes read from this memory
system.mem_ctrls.bytes_written::ruby.dir_cntrl0       853120                       # Number of bytes written to this memory
system.mem_ctrls.bytes_written::total          853120                       # Number of bytes written to this memory
system.mem_ctrls.num_reads::ruby.dir_cntrl0       308254                       # Number of read requests responded to by this memory
system.mem_ctrls.num_reads::total              308254                       # Number of read requests responded to by this memory
system.mem_ctrls.num_writes::ruby.dir_cntrl0        26660                       # Number of write requests responded to by this memory
system.mem_ctrls.num_writes::total              26660                       # Number of write requests responded to by this memory
system.mem_ctrls.bw_read::ruby.dir_cntrl0      3321923                       # Total read bandwidth from this memory (bytes/s)
system.mem_ctrls.bw_read::total               3321923                       # Total read bandwidth from this memory (bytes/s)
system.mem_ctrls.bw_write::ruby.dir_cntrl0       287304                       # Write bandwidth from this memory (bytes/s)
system.mem_ctrls.bw_write::total               287304                       # Write bandwidth from this memory (bytes/s)
system.mem_ctrls.bw_total::ruby.dir_cntrl0      3609226                       # Total bandwidth to/from this memory (bytes/s)
system.mem_ctrls.bw_total::total              3609226                       # Total bandwidth to/from this memory (bytes/s)
system.mem_ctrls.readReqs                      308254                       # Number of read requests accepted
system.mem_ctrls.writeReqs                      26660                       # Number of write requests accepted
system.mem_ctrls.readBursts                    308254                       # Number of DRAM read bursts, including those serviced by the write queue
system.mem_ctrls.writeBursts                    26660                       # Number of DRAM write bursts, including those merged in the write queue
system.mem_ctrls.bytesReadDRAM               19726400                       # Total number of bytes read from DRAM
system.mem_ctrls.bytesReadWrQ                    1856                       # Total number of bytes read from write queue
system.mem_ctrls.bytesWritten                 1480384                       # Total number of bytes written to DRAM
system.mem_ctrls.bytesReadSys                 9864128                       # Total read bytes from the system interface side
system.mem_ctrls.bytesWrittenSys               853120                       # Total written bytes from the system interface side
system.mem_ctrls.servicedByWrQ                     29                       # Number of DRAM read bursts serviced by the write queue
system.mem_ctrls.mergedWrBursts                  3513                       # Number of DRAM write bursts merged with an existing one
system.mem_ctrls.neitherReadNorWriteReqs            0                       # Number of requests that are neither read nor write
system.mem_ctrls.perBankRdBursts::0             21818                       # Per bank write bursts
system.mem_ctrls.perBankRdBursts::1             19222                       # Per bank write bursts
system.mem_ctrls.perBankRdBursts::2             19223                       # Per bank write bursts
system.mem_ctrls.perBankRdBursts::3             18236                       # Per bank write bursts
system.mem_ctrls.perBankRdBursts::4             19374                       # Per bank write bursts
system.mem_ctrls.perBankRdBursts::5             20286                       # Per bank write bursts
system.mem_ctrls.perBankRdBursts::6             18513                       # Per bank write bursts
system.mem_ctrls.perBankRdBursts::7             17672                       # Per bank write bursts
system.mem_ctrls.perBankRdBursts::8             17630                       # Per bank write bursts
system.mem_ctrls.perBankRdBursts::9             18625                       # Per bank write bursts
system.mem_ctrls.perBankRdBursts::10            19106                       # Per bank write bursts
system.mem_ctrls.perBankRdBursts::11            19823                       # Per bank write bursts
system.mem_ctrls.perBankRdBursts::12            19776                       # Per bank write bursts
system.mem_ctrls.perBankRdBursts::13            18766                       # Per bank write bursts
system.mem_ctrls.perBankRdBursts::14            20522                       # Per bank write bursts
system.mem_ctrls.perBankRdBursts::15            19633                       # Per bank write bursts
system.mem_ctrls.perBankWrBursts::0              1941                       # Per bank write bursts
system.mem_ctrls.perBankWrBursts::1              2172                       # Per bank write bursts
system.mem_ctrls.perBankWrBursts::2              1440                       # Per bank write bursts
system.mem_ctrls.perBankWrBursts::3              1116                       # Per bank write bursts
system.mem_ctrls.perBankWrBursts::4              1661                       # Per bank write bursts
system.mem_ctrls.perBankWrBursts::5              1818                       # Per bank write bursts
system.mem_ctrls.perBankWrBursts::6              1483                       # Per bank write bursts
system.mem_ctrls.perBankWrBursts::7              1183                       # Per bank write bursts
system.mem_ctrls.perBankWrBursts::8              1203                       # Per bank write bursts
system.mem_ctrls.perBankWrBursts::9              1506                       # Per bank write bursts
system.mem_ctrls.perBankWrBursts::10             1082                       # Per bank write bursts
system.mem_ctrls.perBankWrBursts::11             1437                       # Per bank write bursts
system.mem_ctrls.perBankWrBursts::12             1327                       # Per bank write bursts
system.mem_ctrls.perBankWrBursts::13             1103                       # Per bank write bursts
system.mem_ctrls.perBankWrBursts::14             1515                       # Per bank write bursts
system.mem_ctrls.perBankWrBursts::15             1144                       # Per bank write bursts
system.mem_ctrls.numRdRetry                         0                       # Number of times read queue was full causing retry
system.mem_ctrls.numWrRetry                         0                       # Number of times write queue was full causing retry
system.mem_ctrls.totGap                  2969403302000                       # Total gap between requests
system.mem_ctrls.readPktSize::0                     0                       # Read request sizes (log2)
system.mem_ctrls.readPktSize::1                     0                       # Read request sizes (log2)
system.mem_ctrls.readPktSize::2                     0                       # Read request sizes (log2)
system.mem_ctrls.readPktSize::3                     0                       # Read request sizes (log2)
system.mem_ctrls.readPktSize::4                     0                       # Read request sizes (log2)
system.mem_ctrls.readPktSize::5                308254                       # Read request sizes (log2)
system.mem_ctrls.readPktSize::6                     0                       # Read request sizes (log2)
system.mem_ctrls.writePktSize::0                    0                       # Write request sizes (log2)
system.mem_ctrls.writePktSize::1                    0                       # Write request sizes (log2)
system.mem_ctrls.writePktSize::2                    0                       # Write request sizes (log2)
system.mem_ctrls.writePktSize::3                    0                       # Write request sizes (log2)
system.mem_ctrls.writePktSize::4                    0                       # Write request sizes (log2)
system.mem_ctrls.writePktSize::5                26660                       # Write request sizes (log2)
system.mem_ctrls.writePktSize::6                    0                       # Write request sizes (log2)
system.mem_ctrls.rdQLenPdf::0                  306656                       # What read queue length does an incoming req see
system.mem_ctrls.rdQLenPdf::1                    1549                       # What read queue length does an incoming req see
system.mem_ctrls.rdQLenPdf::2                      20                       # What read queue length does an incoming req see
system.mem_ctrls.rdQLenPdf::3                       0                       # What read queue length does an incoming req see
system.mem_ctrls.rdQLenPdf::4                       0                       # What read queue length does an incoming req see
system.mem_ctrls.rdQLenPdf::5                       0                       # What read queue length does an incoming req see
system.mem_ctrls.rdQLenPdf::6                       0                       # What read queue length does an incoming req see
system.mem_ctrls.rdQLenPdf::7                       0                       # What read queue length does an incoming req see
system.mem_ctrls.rdQLenPdf::8                       0                       # What read queue length does an incoming req see
system.mem_ctrls.rdQLenPdf::9                       0                       # What read queue length does an incoming req see
system.mem_ctrls.rdQLenPdf::10                      0                       # What read queue length does an incoming req see
system.mem_ctrls.rdQLenPdf::11                      0                       # What read queue length does an incoming req see
system.mem_ctrls.rdQLenPdf::12                      0                       # What read queue length does an incoming req see
system.mem_ctrls.rdQLenPdf::13                      0                       # What read queue length does an incoming req see
system.mem_ctrls.rdQLenPdf::14                      0                       # What read queue length does an incoming req see
system.mem_ctrls.rdQLenPdf::15                      0                       # What read queue length does an incoming req see
system.mem_ctrls.rdQLenPdf::16                      0                       # What read queue length does an incoming req see
system.mem_ctrls.rdQLenPdf::17                      0                       # What read queue length does an incoming req see
system.mem_ctrls.rdQLenPdf::18                      0                       # What read queue length does an incoming req see
system.mem_ctrls.rdQLenPdf::19                      0                       # What read queue length does an incoming req see
system.mem_ctrls.rdQLenPdf::20                      0                       # What read queue length does an incoming req see
system.mem_ctrls.rdQLenPdf::21                      0                       # What read queue length does an incoming req see
system.mem_ctrls.rdQLenPdf::22                      0                       # What read queue length does an incoming req see
system.mem_ctrls.rdQLenPdf::23                      0                       # What read queue length does an incoming req see
system.mem_ctrls.rdQLenPdf::24                      0                       # What read queue length does an incoming req see
system.mem_ctrls.rdQLenPdf::25                      0                       # What read queue length does an incoming req see
system.mem_ctrls.rdQLenPdf::26                      0                       # What read queue length does an incoming req see
system.mem_ctrls.rdQLenPdf::27                      0                       # What read queue length does an incoming req see
system.mem_ctrls.rdQLenPdf::28                      0                       # What read queue length does an incoming req see
system.mem_ctrls.rdQLenPdf::29                      0                       # What read queue length does an incoming req see
system.mem_ctrls.rdQLenPdf::30                      0                       # What read queue length does an incoming req see
system.mem_ctrls.rdQLenPdf::31                      0                       # What read queue length does an incoming req see
system.mem_ctrls.wrQLenPdf::0                       0                       # What write queue length does an incoming req see
system.mem_ctrls.wrQLenPdf::1                       0                       # What write queue length does an incoming req see
system.mem_ctrls.wrQLenPdf::2                       0                       # What write queue length does an incoming req see
system.mem_ctrls.wrQLenPdf::3                       0                       # What write queue length does an incoming req see
system.mem_ctrls.wrQLenPdf::4                       0                       # What write queue length does an incoming req see
system.mem_ctrls.wrQLenPdf::5                       0                       # What write queue length does an incoming req see
system.mem_ctrls.wrQLenPdf::6                       0                       # What write queue length does an incoming req see
system.mem_ctrls.wrQLenPdf::7                       0                       # What write queue length does an incoming req see
system.mem_ctrls.wrQLenPdf::8                       0                       # What write queue length does an incoming req see
system.mem_ctrls.wrQLenPdf::9                       0                       # What write queue length does an incoming req see
system.mem_ctrls.wrQLenPdf::10                      0                       # What write queue length does an incoming req see
system.mem_ctrls.wrQLenPdf::11                      0                       # What write queue length does an incoming req see
system.mem_ctrls.wrQLenPdf::12                      0                       # What write queue length does an incoming req see
system.mem_ctrls.wrQLenPdf::13                      0                       # What write queue length does an incoming req see
system.mem_ctrls.wrQLenPdf::14                      0                       # What write queue length does an incoming req see
system.mem_ctrls.wrQLenPdf::15                    927                       # What write queue length does an incoming req see
system.mem_ctrls.wrQLenPdf::16                    985                       # What write queue length does an incoming req see
system.mem_ctrls.wrQLenPdf::17                   1261                       # What write queue length does an incoming req see
system.mem_ctrls.wrQLenPdf::18                   1366                       # What write queue length does an incoming req see
system.mem_ctrls.wrQLenPdf::19                   1339                       # What write queue length does an incoming req see
system.mem_ctrls.wrQLenPdf::20                   1312                       # What write queue length does an incoming req see
system.mem_ctrls.wrQLenPdf::21                   1357                       # What write queue length does an incoming req see
system.mem_ctrls.wrQLenPdf::22                   1341                       # What write queue length does an incoming req see
system.mem_ctrls.wrQLenPdf::23                   1371                       # What write queue length does an incoming req see
system.mem_ctrls.wrQLenPdf::24                   1331                       # What write queue length does an incoming req see
system.mem_ctrls.wrQLenPdf::25                   1317                       # What write queue length does an incoming req see
system.mem_ctrls.wrQLenPdf::26                   1329                       # What write queue length does an incoming req see
system.mem_ctrls.wrQLenPdf::27                   1322                       # What write queue length does an incoming req see
system.mem_ctrls.wrQLenPdf::28                   1336                       # What write queue length does an incoming req see
system.mem_ctrls.wrQLenPdf::29                   1310                       # What write queue length does an incoming req see
system.mem_ctrls.wrQLenPdf::30                   1298                       # What write queue length does an incoming req see
system.mem_ctrls.wrQLenPdf::31                   1296                       # What write queue length does an incoming req see
system.mem_ctrls.wrQLenPdf::32                   1294                       # What write queue length does an incoming req see
system.mem_ctrls.wrQLenPdf::33                     10                       # What write queue length does an incoming req see
system.mem_ctrls.wrQLenPdf::34                      9                       # What write queue length does an incoming req see
system.mem_ctrls.wrQLenPdf::35                      9                       # What write queue length does an incoming req see
system.mem_ctrls.wrQLenPdf::36                     10                       # What write queue length does an incoming req see
system.mem_ctrls.wrQLenPdf::37                      6                       # What write queue length does an incoming req see
system.mem_ctrls.wrQLenPdf::38                      5                       # What write queue length does an incoming req see
system.mem_ctrls.wrQLenPdf::39                      4                       # What write queue length does an incoming req see
system.mem_ctrls.wrQLenPdf::40                      2                       # What write queue length does an incoming req see
system.mem_ctrls.wrQLenPdf::41                      0                       # What write queue length does an incoming req see
system.mem_ctrls.wrQLenPdf::42                      0                       # What write queue length does an incoming req see
system.mem_ctrls.wrQLenPdf::43                      0                       # What write queue length does an incoming req see
system.mem_ctrls.wrQLenPdf::44                      0                       # What write queue length does an incoming req see
system.mem_ctrls.wrQLenPdf::45                      0                       # What write queue length does an incoming req see
system.mem_ctrls.wrQLenPdf::46                      0                       # What write queue length does an incoming req see
system.mem_ctrls.wrQLenPdf::47                      0                       # What write queue length does an incoming req see
system.mem_ctrls.wrQLenPdf::48                      0                       # What write queue length does an incoming req see
system.mem_ctrls.wrQLenPdf::49                      0                       # What write queue length does an incoming req see
system.mem_ctrls.wrQLenPdf::50                      0                       # What write queue length does an incoming req see
system.mem_ctrls.wrQLenPdf::51                      0                       # What write queue length does an incoming req see
system.mem_ctrls.wrQLenPdf::52                      0                       # What write queue length does an incoming req see
system.mem_ctrls.wrQLenPdf::53                      0                       # What write queue length does an incoming req see
system.mem_ctrls.wrQLenPdf::54                      0                       # What write queue length does an incoming req see
system.mem_ctrls.wrQLenPdf::55                      0                       # What write queue length does an incoming req see
system.mem_ctrls.wrQLenPdf::56                      0                       # What write queue length does an incoming req see
system.mem_ctrls.wrQLenPdf::57                      0                       # What write queue length does an incoming req see
system.mem_ctrls.wrQLenPdf::58                      0                       # What write queue length does an incoming req see
system.mem_ctrls.wrQLenPdf::59                      0                       # What write queue length does an incoming req see
system.mem_ctrls.wrQLenPdf::60                      0                       # What write queue length does an incoming req see
system.mem_ctrls.wrQLenPdf::61                      0                       # What write queue length does an incoming req see
system.mem_ctrls.wrQLenPdf::62                      0                       # What write queue length does an incoming req see
system.mem_ctrls.wrQLenPdf::63                      0                       # What write queue length does an incoming req see
system.mem_ctrls.bytesPerActivate::samples        60812                       # Bytes accessed per row activation
system.mem_ctrls.bytesPerActivate::mean    348.735381                       # Bytes accessed per row activation
system.mem_ctrls.bytesPerActivate::gmean   192.214729                       # Bytes accessed per row activation
system.mem_ctrls.bytesPerActivate::stdev   380.545856                       # Bytes accessed per row activation
system.mem_ctrls.bytesPerActivate::0-127        20556     33.80%     33.80% # Bytes accessed per row activation
system.mem_ctrls.bytesPerActivate::128-255        18359     30.19%     63.99% # Bytes accessed per row activation
system.mem_ctrls.bytesPerActivate::256-383         3800      6.25%     70.24% # Bytes accessed per row activation
system.mem_ctrls.bytesPerActivate::384-511         1853      3.05%     73.29% # Bytes accessed per row activation
system.mem_ctrls.bytesPerActivate::512-639         1438      2.36%     75.65% # Bytes accessed per row activation
system.mem_ctrls.bytesPerActivate::640-767          832      1.37%     77.02% # Bytes accessed per row activation
system.mem_ctrls.bytesPerActivate::768-895          591      0.97%     77.99% # Bytes accessed per row activation
system.mem_ctrls.bytesPerActivate::896-1023          498      0.82%     78.81% # Bytes accessed per row activation
system.mem_ctrls.bytesPerActivate::1024-1151        12885     21.19%    100.00% # Bytes accessed per row activation
system.mem_ctrls.bytesPerActivate::total        60812                       # Bytes accessed per row activation
system.mem_ctrls.rdPerTurnAround::samples         1293                       # Reads before turning the bus around for writes
system.mem_ctrls.rdPerTurnAround::mean     264.253674                       # Reads before turning the bus around for writes
system.mem_ctrls.rdPerTurnAround::stdev   1576.340601                       # Reads before turning the bus around for writes
system.mem_ctrls.rdPerTurnAround::0-2047         1268     98.07%     98.07% # Reads before turning the bus around for writes
system.mem_ctrls.rdPerTurnAround::2048-4095            4      0.31%     98.38% # Reads before turning the bus around for writes
system.mem_ctrls.rdPerTurnAround::4096-6143            5      0.39%     98.76% # Reads before turning the bus around for writes
system.mem_ctrls.rdPerTurnAround::6144-8191            1      0.08%     98.84% # Reads before turning the bus around for writes
system.mem_ctrls.rdPerTurnAround::8192-10239            9      0.70%     99.54% # Reads before turning the bus around for writes
system.mem_ctrls.rdPerTurnAround::12288-14335            4      0.31%     99.85% # Reads before turning the bus around for writes
system.mem_ctrls.rdPerTurnAround::20480-22527            1      0.08%     99.92% # Reads before turning the bus around for writes
system.mem_ctrls.rdPerTurnAround::36864-38911            1      0.08%    100.00% # Reads before turning the bus around for writes
system.mem_ctrls.rdPerTurnAround::total          1293                       # Reads before turning the bus around for writes
system.mem_ctrls.wrPerTurnAround::samples         1293                       # Writes before turning the bus around for reads
system.mem_ctrls.wrPerTurnAround::mean      17.889404                       # Writes before turning the bus around for reads
system.mem_ctrls.wrPerTurnAround::gmean     17.812294                       # Writes before turning the bus around for reads
system.mem_ctrls.wrPerTurnAround::stdev      1.762875                       # Writes before turning the bus around for reads
system.mem_ctrls.wrPerTurnAround::16              346     26.76%     26.76% # Writes before turning the bus around for reads
system.mem_ctrls.wrPerTurnAround::17               17      1.31%     28.07% # Writes before turning the bus around for reads
system.mem_ctrls.wrPerTurnAround::18              731     56.54%     84.61% # Writes before turning the bus around for reads
system.mem_ctrls.wrPerTurnAround::19               68      5.26%     89.87% # Writes before turning the bus around for reads
system.mem_ctrls.wrPerTurnAround::20               46      3.56%     93.43% # Writes before turning the bus around for reads
system.mem_ctrls.wrPerTurnAround::21               14      1.08%     94.51% # Writes before turning the bus around for reads
system.mem_ctrls.wrPerTurnAround::22               44      3.40%     97.91% # Writes before turning the bus around for reads
system.mem_ctrls.wrPerTurnAround::23               10      0.77%     98.69% # Writes before turning the bus around for reads
system.mem_ctrls.wrPerTurnAround::24               11      0.85%     99.54% # Writes before turning the bus around for reads
system.mem_ctrls.wrPerTurnAround::27                2      0.15%     99.69% # Writes before turning the bus around for reads
system.mem_ctrls.wrPerTurnAround::29                1      0.08%     99.77% # Writes before turning the bus around for reads
system.mem_ctrls.wrPerTurnAround::31                1      0.08%     99.85% # Writes before turning the bus around for reads
system.mem_ctrls.wrPerTurnAround::33                2      0.15%    100.00% # Writes before turning the bus around for reads
system.mem_ctrls.wrPerTurnAround::total          1293                       # Writes before turning the bus around for reads
system.mem_ctrls.totQLat                   1477200734                       # Total ticks spent queuing
system.mem_ctrls.totMemAccLat              7256419484                       # Total ticks spent from burst creation until serviced by the DRAM
system.mem_ctrls.totBusLat                 1541125000                       # Total ticks spent in databus transfers
system.mem_ctrls.avgQLat                      4792.61                       # Average queueing delay per DRAM burst
system.mem_ctrls.avgBusLat                    5000.00                       # Average bus latency per DRAM burst
system.mem_ctrls.avgMemAccLat                23542.61                       # Average memory access latency per DRAM burst
system.mem_ctrls.avgRdBW                         6.64                       # Average DRAM read bandwidth in MiByte/s
system.mem_ctrls.avgWrBW                         0.50                       # Average achieved write bandwidth in MiByte/s
system.mem_ctrls.avgRdBWSys                      3.32                       # Average system read bandwidth in MiByte/s
system.mem_ctrls.avgWrBWSys                      0.29                       # Average system write bandwidth in MiByte/s
system.mem_ctrls.peakBW                      12800.00                       # Theoretical peak bandwidth in MiByte/s
system.mem_ctrls.busUtil                         0.06                       # Data bus utilization in percentage
system.mem_ctrls.busUtilRead                     0.05                       # Data bus utilization in percentage for reads
system.mem_ctrls.busUtilWrite                    0.00                       # Data bus utilization in percentage for writes
system.mem_ctrls.avgRdQLen                       1.00                       # Average read queue length when enqueuing
system.mem_ctrls.avgWrQLen                      24.64                       # Average write queue length when enqueuing
system.mem_ctrls.readRowHits                   260775                       # Number of row buffer hits during reads
system.mem_ctrls.writeRowHits                    9770                       # Number of row buffer hits during writes
system.mem_ctrls.readRowHitRate                 84.61                       # Row buffer hit rate for reads
system.mem_ctrls.writeRowHitRate                42.21                       # Row buffer hit rate for writes
system.mem_ctrls.avgGap                    8866166.54                       # Average gap between requests
system.mem_ctrls.pageHitRate                    81.64                       # Row buffer hit rate, read and write combined
system.mem_ctrls_0.actEnergy                259519680                       # Energy for activate commands per rank (pJ)
system.mem_ctrls_0.preEnergy                141603000                       # Energy for precharge commands per rank (pJ)
system.mem_ctrls_0.readEnergy              1338503400                       # Energy for read commands per rank (pJ)
system.mem_ctrls_0.writeEnergy               83034720                       # Energy for write commands per rank (pJ)
system.mem_ctrls_0.refreshEnergy         194268902880                       # Energy for refresh commands per rank (pJ)
system.mem_ctrls_0.actBackEnergy          99396045675                       # Energy for active background per rank (pJ)
system.mem_ctrls_0.preBackEnergy         1697409798750                       # Energy for precharge background per rank (pJ)
system.mem_ctrls_0.totalEnergy           1992897408105                       # Total energy per rank (pJ)
system.mem_ctrls_0.averagePower            670.031887                       # Core power per rank (mW)
system.mem_ctrls_0.memoryStateTime::IDLE 2821882337250                       # Time in different power states
system.mem_ctrls_0.memoryStateTime::REF   99154900000                       # Time in different power states
system.mem_ctrls_0.memoryStateTime::PRE_PDN            0                       # Time in different power states
system.mem_ctrls_0.memoryStateTime::ACT   48363867000                       # Time in different power states
system.mem_ctrls_0.memoryStateTime::ACT_PDN            0                       # Time in different power states
system.mem_ctrls_1.actEnergy                243054000                       # Energy for activate commands per rank (pJ)
system.mem_ctrls_1.preEnergy                132618750                       # Energy for precharge commands per rank (pJ)
system.mem_ctrls_1.readEnergy              1328168400                       # Energy for read commands per rank (pJ)
system.mem_ctrls_1.writeEnergy               66854160                       # Energy for write commands per rank (pJ)
system.mem_ctrls_1.refreshEnergy         194268902880                       # Energy for refresh commands per rank (pJ)
system.mem_ctrls_1.actBackEnergy          99278004375                       # Energy for active background per rank (pJ)
system.mem_ctrls_1.preBackEnergy         1697513343750                       # Energy for precharge background per rank (pJ)
system.mem_ctrls_1.totalEnergy           1992830946315                       # Total energy per rank (pJ)
system.mem_ctrls_1.averagePower            670.009542                       # Core power per rank (mW)
system.mem_ctrls_1.memoryStateTime::IDLE 2821818219251                       # Time in different power states
system.mem_ctrls_1.memoryStateTime::REF   99154900000                       # Time in different power states
system.mem_ctrls_1.memoryStateTime::PRE_PDN            0                       # Time in different power states
system.mem_ctrls_1.memoryStateTime::ACT   48429195999                       # Time in different power states
system.mem_ctrls_1.memoryStateTime::ACT_PDN            0                       # Time in different power states
system.cpu_voltage_domain.voltage                   1                       # Voltage in Volts
system.cpu_clk_domain.clock                       500                       # Clock period in ticks
system.cpu0.apic_clk_domain.clock                8000                       # Clock period in ticks
system.cpu0.numCycles                      5937514190                       # number of cpu cycles simulated
system.cpu0.numWorkItemsStarted                     0                       # number of work items this cpu started
system.cpu0.numWorkItemsCompleted                   0                       # number of work items this cpu completed
system.cpu0.kern.inst.arm                           0                       # number of arm instructions executed
system.cpu0.kern.inst.quiesce                       0                       # number of quiesce instructions executed
system.cpu0.committedInsts                    3758125                       # Number of instructions committed
system.cpu0.committedOps                      7811182                       # Number of ops (including micro ops) committed
system.cpu0.num_int_alu_accesses              7671619                       # Number of integer alu accesses
system.cpu0.num_fp_alu_accesses                  1778                       # Number of float alu accesses
system.cpu0.num_func_calls                     203684                       # number of times a function call or return occured
system.cpu0.num_conditional_control_insts       629308                       # number of instructions that are conditional controls
system.cpu0.num_int_insts                     7671619                       # number of integer instructions
system.cpu0.num_fp_insts                         1778                       # number of float instructions
system.cpu0.num_int_register_reads           15222769                       # number of times the integer registers were read
system.cpu0.num_int_register_writes           6285097                       # number of times the integer registers were written
system.cpu0.num_fp_register_reads                2988                       # number of times the floating registers were read
system.cpu0.num_fp_register_writes               1416                       # number of times the floating registers were written
system.cpu0.num_cc_register_reads             4766625                       # number of times the CC registers were read
system.cpu0.num_cc_register_writes            2535956                       # number of times the CC registers were written
system.cpu0.num_mem_refs                      1707328                       # number of memory refs
system.cpu0.num_load_insts                    1062585                       # Number of load instructions
system.cpu0.num_store_insts                    644743                       # Number of store instructions
system.cpu0.num_idle_cycles              5920411094.884424                       # Number of idle cycles
system.cpu0.num_busy_cycles              17103095.115575                       # Number of busy cycles
system.cpu0.not_idle_fraction                0.002881                       # Percentage of non-idle cycles
system.cpu0.idle_fraction                    0.997119                       # Percentage of idle cycles
system.cpu0.Branches                           893544                       # Number of branches fetched
system.cpu0.op_class::No_OpClass                98729      1.26%      1.26% # Class of executed instruction
system.cpu0.op_class::IntAlu                  5960506     76.31%     77.57% # Class of executed instruction
system.cpu0.op_class::IntMult                   12050      0.15%     77.72% # Class of executed instruction
system.cpu0.op_class::IntDiv                    31317      0.40%     78.13% # Class of executed instruction
system.cpu0.op_class::FloatAdd                   1344      0.02%     78.14% # Class of executed instruction
system.cpu0.op_class::FloatCmp                      0      0.00%     78.14% # Class of executed instruction
system.cpu0.op_class::FloatCvt                      0      0.00%     78.14% # Class of executed instruction
system.cpu0.op_class::FloatMult                     0      0.00%     78.14% # Class of executed instruction
system.cpu0.op_class::FloatDiv                      0      0.00%     78.14% # Class of executed instruction
system.cpu0.op_class::FloatSqrt                     0      0.00%     78.14% # Class of executed instruction
system.cpu0.op_class::SimdAdd                       0      0.00%     78.14% # Class of executed instruction
system.cpu0.op_class::SimdAddAcc                    0      0.00%     78.14% # Class of executed instruction
system.cpu0.op_class::SimdAlu                       0      0.00%     78.14% # Class of executed instruction
system.cpu0.op_class::SimdCmp                       0      0.00%     78.14% # Class of executed instruction
system.cpu0.op_class::SimdCvt                       0      0.00%     78.14% # Class of executed instruction
system.cpu0.op_class::SimdMisc                      0      0.00%     78.14% # Class of executed instruction
system.cpu0.op_class::SimdMult                      0      0.00%     78.14% # Class of executed instruction
system.cpu0.op_class::SimdMultAcc                   0      0.00%     78.14% # Class of executed instruction
system.cpu0.op_class::SimdShift                     0      0.00%     78.14% # Class of executed instruction
system.cpu0.op_class::SimdShiftAcc                  0      0.00%     78.14% # Class of executed instruction
system.cpu0.op_class::SimdSqrt                      0      0.00%     78.14% # Class of executed instruction
system.cpu0.op_class::SimdFloatAdd                  0      0.00%     78.14% # Class of executed instruction
system.cpu0.op_class::SimdFloatAlu                  0      0.00%     78.14% # Class of executed instruction
system.cpu0.op_class::SimdFloatCmp                  0      0.00%     78.14% # Class of executed instruction
system.cpu0.op_class::SimdFloatCvt                  0      0.00%     78.14% # Class of executed instruction
system.cpu0.op_class::SimdFloatDiv                  0      0.00%     78.14% # Class of executed instruction
system.cpu0.op_class::SimdFloatMisc                 0      0.00%     78.14% # Class of executed instruction
system.cpu0.op_class::SimdFloatMult                 0      0.00%     78.14% # Class of executed instruction
system.cpu0.op_class::SimdFloatMultAcc              0      0.00%     78.14% # Class of executed instruction
system.cpu0.op_class::SimdFloatSqrt                 0      0.00%     78.14% # Class of executed instruction
system.cpu0.op_class::MemRead                 1062585     13.60%     91.75% # Class of executed instruction
system.cpu0.op_class::MemWrite                 644743      8.25%    100.00% # Class of executed instruction
system.cpu0.op_class::IprAccess                     0      0.00%    100.00% # Class of executed instruction
system.cpu0.op_class::InstPrefetch                  0      0.00%    100.00% # Class of executed instruction
system.cpu0.op_class::total                   7811274                       # Class of executed instruction
system.cpu1.apic_clk_domain.clock                8000                       # Clock period in ticks
system.cpu1.numCycles                      5943667336                       # number of cpu cycles simulated
system.cpu1.numWorkItemsStarted                     0                       # number of work items this cpu started
system.cpu1.numWorkItemsCompleted                   0                       # number of work items this cpu completed
system.cpu1.kern.inst.arm                           0                       # number of arm instructions executed
system.cpu1.kern.inst.quiesce                       0                       # number of quiesce instructions executed
system.cpu1.committedInsts                    4459411                       # Number of instructions committed
system.cpu1.committedOps                      9158280                       # Number of ops (including micro ops) committed
system.cpu1.num_int_alu_accesses              8998379                       # Number of integer alu accesses
system.cpu1.num_fp_alu_accesses                    50                       # Number of float alu accesses
system.cpu1.num_func_calls                     220050                       # number of times a function call or return occured
system.cpu1.num_conditional_control_insts       786166                       # number of instructions that are conditional controls
system.cpu1.num_int_insts                     8998379                       # number of integer instructions
system.cpu1.num_fp_insts                           50                       # number of float instructions
system.cpu1.num_int_register_reads           17641412                       # number of times the integer registers were read
system.cpu1.num_int_register_writes           7396764                       # number of times the integer registers were written
system.cpu1.num_fp_register_reads                  78                       # number of times the floating registers were read
system.cpu1.num_fp_register_writes                 38                       # number of times the floating registers were written
system.cpu1.num_cc_register_reads             5838769                       # number of times the CC registers were read
system.cpu1.num_cc_register_writes            3051702                       # number of times the CC registers were written
system.cpu1.num_mem_refs                      1893116                       # number of memory refs
system.cpu1.num_load_insts                    1210903                       # Number of load instructions
system.cpu1.num_store_insts                    682213                       # Number of store instructions
system.cpu1.num_idle_cycles              5924072700.566118                       # Number of idle cycles
system.cpu1.num_busy_cycles              19594635.433882                       # Number of busy cycles
system.cpu1.not_idle_fraction                0.003297                       # Percentage of non-idle cycles
system.cpu1.idle_fraction                    0.996703                       # Percentage of idle cycles
system.cpu1.Branches                          1076455                       # Number of branches fetched
system.cpu1.op_class::No_OpClass               107259      1.17%      1.17% # Class of executed instruction
system.cpu1.op_class::IntAlu                  7111148     77.65%     78.82% # Class of executed instruction
system.cpu1.op_class::IntMult                   17104      0.19%     79.00% # Class of executed instruction
system.cpu1.op_class::IntDiv                    29644      0.32%     79.33% # Class of executed instruction
system.cpu1.op_class::FloatAdd                     32      0.00%     79.33% # Class of executed instruction
system.cpu1.op_class::FloatCmp                      0      0.00%     79.33% # Class of executed instruction
system.cpu1.op_class::FloatCvt                      0      0.00%     79.33% # Class of executed instruction
system.cpu1.op_class::FloatMult                     0      0.00%     79.33% # Class of executed instruction
system.cpu1.op_class::FloatDiv                      0      0.00%     79.33% # Class of executed instruction
system.cpu1.op_class::FloatSqrt                     0      0.00%     79.33% # Class of executed instruction
system.cpu1.op_class::SimdAdd                       0      0.00%     79.33% # Class of executed instruction
system.cpu1.op_class::SimdAddAcc                    0      0.00%     79.33% # Class of executed instruction
system.cpu1.op_class::SimdAlu                       0      0.00%     79.33% # Class of executed instruction
system.cpu1.op_class::SimdCmp                       0      0.00%     79.33% # Class of executed instruction
system.cpu1.op_class::SimdCvt                       0      0.00%     79.33% # Class of executed instruction
system.cpu1.op_class::SimdMisc                      0      0.00%     79.33% # Class of executed instruction
system.cpu1.op_class::SimdMult                      0      0.00%     79.33% # Class of executed instruction
system.cpu1.op_class::SimdMultAcc                   0      0.00%     79.33% # Class of executed instruction
system.cpu1.op_class::SimdShift                     0      0.00%     79.33% # Class of executed instruction
system.cpu1.op_class::SimdShiftAcc                  0      0.00%     79.33% # Class of executed instruction
system.cpu1.op_class::SimdSqrt                      0      0.00%     79.33% # Class of executed instruction
system.cpu1.op_class::SimdFloatAdd                  0      0.00%     79.33% # Class of executed instruction
system.cpu1.op_class::SimdFloatAlu                  0      0.00%     79.33% # Class of executed instruction
system.cpu1.op_class::SimdFloatCmp                  0      0.00%     79.33% # Class of executed instruction
system.cpu1.op_class::SimdFloatCvt                  0      0.00%     79.33% # Class of executed instruction
system.cpu1.op_class::SimdFloatDiv                  0      0.00%     79.33% # Class of executed instruction
system.cpu1.op_class::SimdFloatMisc                 0      0.00%     79.33% # Class of executed instruction
system.cpu1.op_class::SimdFloatMult                 0      0.00%     79.33% # Class of executed instruction
system.cpu1.op_class::SimdFloatMultAcc              0      0.00%     79.33% # Class of executed instruction
system.cpu1.op_class::SimdFloatSqrt                 0      0.00%     79.33% # Class of executed instruction
system.cpu1.op_class::MemRead                 1210903     13.22%     92.55% # Class of executed instruction
system.cpu1.op_class::MemWrite                 682213      7.45%    100.00% # Class of executed instruction
system.cpu1.op_class::IprAccess                     0      0.00%    100.00% # Class of executed instruction
system.cpu1.op_class::InstPrefetch                  0      0.00%    100.00% # Class of executed instruction
system.cpu1.op_class::total                   9158303                       # Class of executed instruction
system.cpu2.apic_clk_domain.clock                8000                       # Clock period in ticks
system.cpu2.numCycles                      5941009243                       # number of cpu cycles simulated
system.cpu2.numWorkItemsStarted                     0                       # number of work items this cpu started
system.cpu2.numWorkItemsCompleted                   0                       # number of work items this cpu completed
system.cpu2.kern.inst.arm                           0                       # number of arm instructions executed
system.cpu2.kern.inst.quiesce                       0                       # number of quiesce instructions executed
system.cpu2.committedInsts                 1521240847                       # Number of instructions committed
system.cpu2.committedOps                   2544935604                       # Number of ops (including micro ops) committed
system.cpu2.num_int_alu_accesses           1949435835                       # Number of integer alu accesses
system.cpu2.num_fp_alu_accesses             965605495                       # Number of float alu accesses
system.cpu2.num_func_calls                   35452423                       # number of times a function call or return occured
system.cpu2.num_conditional_control_insts    171608818                       # number of instructions that are conditional controls
system.cpu2.num_int_insts                  1949435835                       # number of integer instructions
system.cpu2.num_fp_insts                    965605495                       # number of float instructions
system.cpu2.num_int_register_reads         4129631950                       # number of times the integer registers were read
system.cpu2.num_int_register_writes        1329421738                       # number of times the integer registers were written
system.cpu2.num_fp_register_reads          1529971919                       # number of times the floating registers were read
system.cpu2.num_fp_register_writes          790024602                       # number of times the floating registers were written
system.cpu2.num_cc_register_reads          1447169624                       # number of times the CC registers were read
system.cpu2.num_cc_register_writes          550089584                       # number of times the CC registers were written
system.cpu2.num_mem_refs                    644755065                       # number of memory refs
system.cpu2.num_load_insts                  478354157                       # Number of load instructions
system.cpu2.num_store_insts                 166400908                       # Number of store instructions
system.cpu2.num_idle_cycles              5556311.005879                       # Number of idle cycles
system.cpu2.num_busy_cycles              5935452931.994121                       # Number of busy cycles
system.cpu2.not_idle_fraction                0.999065                       # Percentage of non-idle cycles
system.cpu2.idle_fraction                    0.000935                       # Percentage of idle cycles
system.cpu2.Branches                        231442910                       # Number of branches fetched
system.cpu2.op_class::No_OpClass              3381273      0.13%      0.13% # Class of executed instruction
system.cpu2.op_class::IntAlu               1473294570     57.89%     58.02% # Class of executed instruction
system.cpu2.op_class::IntMult                 4731639      0.19%     58.21% # Class of executed instruction
system.cpu2.op_class::IntDiv                 19610560      0.77%     58.98% # Class of executed instruction
system.cpu2.op_class::FloatAdd              398094519     15.64%     74.62% # Class of executed instruction
system.cpu2.op_class::FloatCmp                      0      0.00%     74.62% # Class of executed instruction
system.cpu2.op_class::FloatCvt                      0      0.00%     74.62% # Class of executed instruction
system.cpu2.op_class::FloatMult                     0      0.00%     74.62% # Class of executed instruction
system.cpu2.op_class::FloatDiv                1068154      0.04%     74.67% # Class of executed instruction
system.cpu2.op_class::FloatSqrt                     0      0.00%     74.67% # Class of executed instruction
system.cpu2.op_class::SimdAdd                       0      0.00%     74.67% # Class of executed instruction
system.cpu2.op_class::SimdAddAcc                    0      0.00%     74.67% # Class of executed instruction
system.cpu2.op_class::SimdAlu                       0      0.00%     74.67% # Class of executed instruction
system.cpu2.op_class::SimdCmp                       0      0.00%     74.67% # Class of executed instruction
system.cpu2.op_class::SimdCvt                       0      0.00%     74.67% # Class of executed instruction
system.cpu2.op_class::SimdMisc                      0      0.00%     74.67% # Class of executed instruction
system.cpu2.op_class::SimdMult                      0      0.00%     74.67% # Class of executed instruction
system.cpu2.op_class::SimdMultAcc                   0      0.00%     74.67% # Class of executed instruction
system.cpu2.op_class::SimdShift                     0      0.00%     74.67% # Class of executed instruction
system.cpu2.op_class::SimdShiftAcc                  0      0.00%     74.67% # Class of executed instruction
system.cpu2.op_class::SimdSqrt                      0      0.00%     74.67% # Class of executed instruction
system.cpu2.op_class::SimdFloatAdd                  0      0.00%     74.67% # Class of executed instruction
system.cpu2.op_class::SimdFloatAlu                  0      0.00%     74.67% # Class of executed instruction
system.cpu2.op_class::SimdFloatCmp                  0      0.00%     74.67% # Class of executed instruction
system.cpu2.op_class::SimdFloatCvt                  0      0.00%     74.67% # Class of executed instruction
system.cpu2.op_class::SimdFloatDiv                  0      0.00%     74.67% # Class of executed instruction
system.cpu2.op_class::SimdFloatMisc                 0      0.00%     74.67% # Class of executed instruction
system.cpu2.op_class::SimdFloatMult                 0      0.00%     74.67% # Class of executed instruction
system.cpu2.op_class::SimdFloatMultAcc              0      0.00%     74.67% # Class of executed instruction
system.cpu2.op_class::SimdFloatSqrt                 0      0.00%     74.67% # Class of executed instruction
system.cpu2.op_class::MemRead               478354157     18.80%     93.46% # Class of executed instruction
system.cpu2.op_class::MemWrite              166400908      6.54%    100.00% # Class of executed instruction
system.cpu2.op_class::IprAccess                     0      0.00%    100.00% # Class of executed instruction
system.cpu2.op_class::InstPrefetch                  0      0.00%    100.00% # Class of executed instruction
system.cpu2.op_class::total                2544935780                       # Class of executed instruction
system.cpu3.apic_clk_domain.clock                8000                       # Clock period in ticks
system.cpu3.numCycles                      5938213852                       # number of cpu cycles simulated
system.cpu3.numWorkItemsStarted                     0                       # number of work items this cpu started
system.cpu3.numWorkItemsCompleted                   0                       # number of work items this cpu completed
system.cpu3.kern.inst.arm                           0                       # number of arm instructions executed
system.cpu3.kern.inst.quiesce                       0                       # number of quiesce instructions executed
system.cpu3.committedInsts                    2687218                       # Number of instructions committed
system.cpu3.committedOps                      5710680                       # Number of ops (including micro ops) committed
system.cpu3.num_int_alu_accesses              5597091                       # Number of integer alu accesses
system.cpu3.num_fp_alu_accesses                     0                       # Number of float alu accesses
system.cpu3.num_func_calls                     149214                       # number of times a function call or return occured
system.cpu3.num_conditional_control_insts       463476                       # number of instructions that are conditional controls
system.cpu3.num_int_insts                     5597091                       # number of integer instructions
system.cpu3.num_fp_insts                            0                       # number of float instructions
system.cpu3.num_int_register_reads           11092236                       # number of times the integer registers were read
system.cpu3.num_int_register_writes           4618780                       # number of times the integer registers were written
system.cpu3.num_fp_register_reads                   0                       # number of times the floating registers were read
system.cpu3.num_fp_register_writes                  0                       # number of times the floating registers were written
system.cpu3.num_cc_register_reads             3534233                       # number of times the CC registers were read
system.cpu3.num_cc_register_writes            1788968                       # number of times the CC registers were written
system.cpu3.num_mem_refs                      1252933                       # number of memory refs
system.cpu3.num_load_insts                     783540                       # Number of load instructions
system.cpu3.num_store_insts                    469393                       # Number of store instructions
system.cpu3.num_idle_cycles              5926765650.820036                       # Number of idle cycles
system.cpu3.num_busy_cycles              11448201.179964                       # Number of busy cycles
system.cpu3.not_idle_fraction                0.001928                       # Percentage of non-idle cycles
system.cpu3.idle_fraction                    0.998072                       # Percentage of idle cycles
system.cpu3.Branches                           658995                       # Number of branches fetched
system.cpu3.op_class::No_OpClass                92459      1.62%      1.62% # Class of executed instruction
system.cpu3.op_class::IntAlu                  4322280     75.69%     77.31% # Class of executed instruction
system.cpu3.op_class::IntMult                   10251      0.18%     77.49% # Class of executed instruction
system.cpu3.op_class::IntDiv                    32760      0.57%     78.06% # Class of executed instruction
system.cpu3.op_class::FloatAdd                      0      0.00%     78.06% # Class of executed instruction
system.cpu3.op_class::FloatCmp                      0      0.00%     78.06% # Class of executed instruction
system.cpu3.op_class::FloatCvt                      0      0.00%     78.06% # Class of executed instruction
system.cpu3.op_class::FloatMult                     0      0.00%     78.06% # Class of executed instruction
system.cpu3.op_class::FloatDiv                      0      0.00%     78.06% # Class of executed instruction
system.cpu3.op_class::FloatSqrt                     0      0.00%     78.06% # Class of executed instruction
system.cpu3.op_class::SimdAdd                       0      0.00%     78.06% # Class of executed instruction
system.cpu3.op_class::SimdAddAcc                    0      0.00%     78.06% # Class of executed instruction
system.cpu3.op_class::SimdAlu                       0      0.00%     78.06% # Class of executed instruction
system.cpu3.op_class::SimdCmp                       0      0.00%     78.06% # Class of executed instruction
system.cpu3.op_class::SimdCvt                       0      0.00%     78.06% # Class of executed instruction
system.cpu3.op_class::SimdMisc                      0      0.00%     78.06% # Class of executed instruction
system.cpu3.op_class::SimdMult                      0      0.00%     78.06% # Class of executed instruction
system.cpu3.op_class::SimdMultAcc                   0      0.00%     78.06% # Class of executed instruction
system.cpu3.op_class::SimdShift                     0      0.00%     78.06% # Class of executed instruction
system.cpu3.op_class::SimdShiftAcc                  0      0.00%     78.06% # Class of executed instruction
system.cpu3.op_class::SimdSqrt                      0      0.00%     78.06% # Class of executed instruction
system.cpu3.op_class::SimdFloatAdd                  0      0.00%     78.06% # Class of executed instruction
system.cpu3.op_class::SimdFloatAlu                  0      0.00%     78.06% # Class of executed instruction
system.cpu3.op_class::SimdFloatCmp                  0      0.00%     78.06% # Class of executed instruction
system.cpu3.op_class::SimdFloatCvt                  0      0.00%     78.06% # Class of executed instruction
system.cpu3.op_class::SimdFloatDiv                  0      0.00%     78.06% # Class of executed instruction
system.cpu3.op_class::SimdFloatMisc                 0      0.00%     78.06% # Class of executed instruction
system.cpu3.op_class::SimdFloatMult                 0      0.00%     78.06% # Class of executed instruction
system.cpu3.op_class::SimdFloatMultAcc              0      0.00%     78.06% # Class of executed instruction
system.cpu3.op_class::SimdFloatSqrt                 0      0.00%     78.06% # Class of executed instruction
system.cpu3.op_class::MemRead                  783540     13.72%     91.78% # Class of executed instruction
system.cpu3.op_class::MemWrite                 469393      8.22%    100.00% # Class of executed instruction
system.cpu3.op_class::IprAccess                     0      0.00%    100.00% # Class of executed instruction
system.cpu3.op_class::InstPrefetch                  0      0.00%    100.00% # Class of executed instruction
system.cpu3.op_class::total                   5710683                       # Class of executed instruction
system.iobus.trans_dist::ReadReq                  873                       # Transaction distribution
system.iobus.trans_dist::ReadResp                 873                       # Transaction distribution
system.iobus.trans_dist::WriteReq                4617                       # Transaction distribution
system.iobus.trans_dist::WriteResp               4617                       # Transaction distribution
system.iobus.trans_dist::MessageReq               112                       # Transaction distribution
system.iobus.trans_dist::MessageResp              112                       # Transaction distribution
system.iobus.pkt_count_system.pc.south_bridge.io_apic.int_master::system.ruby.l1_cntrl0.sequencer.pio-slave-port           50                       # Packet count per connected master and slave (bytes)
system.iobus.pkt_count_system.pc.south_bridge.io_apic.int_master::system.ruby.l1_cntrl1.sequencer.pio-slave-port           52                       # Packet count per connected master and slave (bytes)
system.iobus.pkt_count_system.pc.south_bridge.io_apic.int_master::system.ruby.l1_cntrl2.sequencer.pio-slave-port           52                       # Packet count per connected master and slave (bytes)
system.iobus.pkt_count_system.pc.south_bridge.io_apic.int_master::system.ruby.l1_cntrl3.sequencer.pio-slave-port           52                       # Packet count per connected master and slave (bytes)
system.iobus.pkt_count_system.pc.south_bridge.io_apic.int_master::total          206                       # Packet count per connected master and slave (bytes)
system.iobus.pkt_count_system.ruby.l1_cntrl0.sequencer.mem-master-port::system.pc.south_bridge.ide.pio         1070                       # Packet count per connected master and slave (bytes)
system.iobus.pkt_count_system.ruby.l1_cntrl0.sequencer.mem-master-port::system.pc.south_bridge.io_apic.pio            6                       # Packet count per connected master and slave (bytes)
system.iobus.pkt_count_system.ruby.l1_cntrl0.sequencer.mem-master-port::system.pc.com_1.pio          174                       # Packet count per connected master and slave (bytes)
system.iobus.pkt_count_system.ruby.l1_cntrl0.sequencer.mem-master-port::system.ruby.l1_cntrl0.sequencer.pio-slave-port         1556                       # Packet count per connected master and slave (bytes)
system.iobus.pkt_count_system.ruby.l1_cntrl0.sequencer.mem-master-port::system.ruby.l1_cntrl1.sequencer.pio-slave-port            2                       # Packet count per connected master and slave (bytes)
system.iobus.pkt_count_system.ruby.l1_cntrl0.sequencer.mem-master-port::system.ruby.l1_cntrl2.sequencer.pio-slave-port            2                       # Packet count per connected master and slave (bytes)
system.iobus.pkt_count_system.ruby.l1_cntrl0.sequencer.mem-master-port::system.ruby.l1_cntrl3.sequencer.pio-slave-port            2                       # Packet count per connected master and slave (bytes)
system.iobus.pkt_count_system.ruby.l1_cntrl0.sequencer.mem-master-port::total         2812                       # Packet count per connected master and slave (bytes)
system.iobus.pkt_count_system.ruby.l1_cntrl1.sequencer.mem-master-port::system.pc.south_bridge.ide.pio         1558                       # Packet count per connected master and slave (bytes)
system.iobus.pkt_count_system.ruby.l1_cntrl1.sequencer.mem-master-port::system.pc.south_bridge.io_apic.pio            8                       # Packet count per connected master and slave (bytes)
system.iobus.pkt_count_system.ruby.l1_cntrl1.sequencer.mem-master-port::system.pc.com_1.pio            2                       # Packet count per connected master and slave (bytes)
system.iobus.pkt_count_system.ruby.l1_cntrl1.sequencer.mem-master-port::system.ruby.l1_cntrl1.sequencer.pio-slave-port         1552                       # Packet count per connected master and slave (bytes)
system.iobus.pkt_count_system.ruby.l1_cntrl1.sequencer.mem-master-port::system.ruby.l1_cntrl2.sequencer.pio-slave-port            2                       # Packet count per connected master and slave (bytes)
system.iobus.pkt_count_system.ruby.l1_cntrl1.sequencer.mem-master-port::total         3122                       # Packet count per connected master and slave (bytes)
system.iobus.pkt_count_system.ruby.l1_cntrl2.sequencer.mem-master-port::system.pc.south_bridge.ide.pio          980                       # Packet count per connected master and slave (bytes)
system.iobus.pkt_count_system.ruby.l1_cntrl2.sequencer.mem-master-port::system.pc.south_bridge.io_apic.pio            8                       # Packet count per connected master and slave (bytes)
system.iobus.pkt_count_system.ruby.l1_cntrl2.sequencer.mem-master-port::system.ruby.l1_cntrl1.sequencer.pio-slave-port            6                       # Packet count per connected master and slave (bytes)
system.iobus.pkt_count_system.ruby.l1_cntrl2.sequencer.mem-master-port::system.ruby.l1_cntrl2.sequencer.pio-slave-port         1564                       # Packet count per connected master and slave (bytes)
system.iobus.pkt_count_system.ruby.l1_cntrl2.sequencer.mem-master-port::system.ruby.l1_cntrl3.sequencer.pio-slave-port            2                       # Packet count per connected master and slave (bytes)
system.iobus.pkt_count_system.ruby.l1_cntrl2.sequencer.mem-master-port::total         2560                       # Packet count per connected master and slave (bytes)
system.iobus.pkt_count_system.ruby.l1_cntrl3.sequencer.mem-master-port::system.pc.south_bridge.ide.pio          946                       # Packet count per connected master and slave (bytes)
system.iobus.pkt_count_system.ruby.l1_cntrl3.sequencer.mem-master-port::system.pc.south_bridge.io_apic.pio            8                       # Packet count per connected master and slave (bytes)
system.iobus.pkt_count_system.ruby.l1_cntrl3.sequencer.mem-master-port::system.ruby.l1_cntrl0.sequencer.pio-slave-port            2                       # Packet count per connected master and slave (bytes)
system.iobus.pkt_count_system.ruby.l1_cntrl3.sequencer.mem-master-port::system.ruby.l1_cntrl3.sequencer.pio-slave-port         1548                       # Packet count per connected master and slave (bytes)
system.iobus.pkt_count_system.ruby.l1_cntrl3.sequencer.mem-master-port::total         2504                       # Packet count per connected master and slave (bytes)
system.iobus.pkt_count::total                   11204                       # Packet count per connected master and slave (bytes)
system.iobus.pkt_size_system.pc.south_bridge.io_apic.int_master::system.ruby.l1_cntrl0.sequencer.pio-slave-port          100                       # Cumulative packet size per connected master and slave (bytes)
system.iobus.pkt_size_system.pc.south_bridge.io_apic.int_master::system.ruby.l1_cntrl1.sequencer.pio-slave-port          104                       # Cumulative packet size per connected master and slave (bytes)
system.iobus.pkt_size_system.pc.south_bridge.io_apic.int_master::system.ruby.l1_cntrl2.sequencer.pio-slave-port          104                       # Cumulative packet size per connected master and slave (bytes)
system.iobus.pkt_size_system.pc.south_bridge.io_apic.int_master::system.ruby.l1_cntrl3.sequencer.pio-slave-port          104                       # Cumulative packet size per connected master and slave (bytes)
system.iobus.pkt_size_system.pc.south_bridge.io_apic.int_master::total          412                       # Cumulative packet size per connected master and slave (bytes)
system.iobus.pkt_size_system.ruby.l1_cntrl0.sequencer.mem-master-port::system.pc.south_bridge.ide.pio          604                       # Cumulative packet size per connected master and slave (bytes)
system.iobus.pkt_size_system.ruby.l1_cntrl0.sequencer.mem-master-port::system.pc.south_bridge.io_apic.pio           12                       # Cumulative packet size per connected master and slave (bytes)
system.iobus.pkt_size_system.ruby.l1_cntrl0.sequencer.mem-master-port::system.pc.com_1.pio           87                       # Cumulative packet size per connected master and slave (bytes)
system.iobus.pkt_size_system.ruby.l1_cntrl0.sequencer.mem-master-port::system.ruby.l1_cntrl0.sequencer.pio-slave-port         3112                       # Cumulative packet size per connected master and slave (bytes)
system.iobus.pkt_size_system.ruby.l1_cntrl0.sequencer.mem-master-port::system.ruby.l1_cntrl1.sequencer.pio-slave-port            4                       # Cumulative packet size per connected master and slave (bytes)
system.iobus.pkt_size_system.ruby.l1_cntrl0.sequencer.mem-master-port::system.ruby.l1_cntrl2.sequencer.pio-slave-port            4                       # Cumulative packet size per connected master and slave (bytes)
system.iobus.pkt_size_system.ruby.l1_cntrl0.sequencer.mem-master-port::system.ruby.l1_cntrl3.sequencer.pio-slave-port            4                       # Cumulative packet size per connected master and slave (bytes)
system.iobus.pkt_size_system.ruby.l1_cntrl0.sequencer.mem-master-port::total         3827                       # Cumulative packet size per connected master and slave (bytes)
system.iobus.pkt_size_system.ruby.l1_cntrl1.sequencer.mem-master-port::system.pc.south_bridge.ide.pio          890                       # Cumulative packet size per connected master and slave (bytes)
system.iobus.pkt_size_system.ruby.l1_cntrl1.sequencer.mem-master-port::system.pc.south_bridge.io_apic.pio           16                       # Cumulative packet size per connected master and slave (bytes)
system.iobus.pkt_size_system.ruby.l1_cntrl1.sequencer.mem-master-port::system.pc.com_1.pio            1                       # Cumulative packet size per connected master and slave (bytes)
system.iobus.pkt_size_system.ruby.l1_cntrl1.sequencer.mem-master-port::system.ruby.l1_cntrl1.sequencer.pio-slave-port         3104                       # Cumulative packet size per connected master and slave (bytes)
system.iobus.pkt_size_system.ruby.l1_cntrl1.sequencer.mem-master-port::system.ruby.l1_cntrl2.sequencer.pio-slave-port            4                       # Cumulative packet size per connected master and slave (bytes)
system.iobus.pkt_size_system.ruby.l1_cntrl1.sequencer.mem-master-port::total         4015                       # Cumulative packet size per connected master and slave (bytes)
system.iobus.pkt_size_system.ruby.l1_cntrl2.sequencer.mem-master-port::system.pc.south_bridge.ide.pio          550                       # Cumulative packet size per connected master and slave (bytes)
system.iobus.pkt_size_system.ruby.l1_cntrl2.sequencer.mem-master-port::system.pc.south_bridge.io_apic.pio           16                       # Cumulative packet size per connected master and slave (bytes)
system.iobus.pkt_size_system.ruby.l1_cntrl2.sequencer.mem-master-port::system.ruby.l1_cntrl1.sequencer.pio-slave-port           12                       # Cumulative packet size per connected master and slave (bytes)
system.iobus.pkt_size_system.ruby.l1_cntrl2.sequencer.mem-master-port::system.ruby.l1_cntrl2.sequencer.pio-slave-port         3128                       # Cumulative packet size per connected master and slave (bytes)
system.iobus.pkt_size_system.ruby.l1_cntrl2.sequencer.mem-master-port::system.ruby.l1_cntrl3.sequencer.pio-slave-port            4                       # Cumulative packet size per connected master and slave (bytes)
system.iobus.pkt_size_system.ruby.l1_cntrl2.sequencer.mem-master-port::total         3710                       # Cumulative packet size per connected master and slave (bytes)
system.iobus.pkt_size_system.ruby.l1_cntrl3.sequencer.mem-master-port::system.pc.south_bridge.ide.pio          530                       # Cumulative packet size per connected master and slave (bytes)
system.iobus.pkt_size_system.ruby.l1_cntrl3.sequencer.mem-master-port::system.pc.south_bridge.io_apic.pio           16                       # Cumulative packet size per connected master and slave (bytes)
system.iobus.pkt_size_system.ruby.l1_cntrl3.sequencer.mem-master-port::system.ruby.l1_cntrl0.sequencer.pio-slave-port            4                       # Cumulative packet size per connected master and slave (bytes)
system.iobus.pkt_size_system.ruby.l1_cntrl3.sequencer.mem-master-port::system.ruby.l1_cntrl3.sequencer.pio-slave-port         3096                       # Cumulative packet size per connected master and slave (bytes)
system.iobus.pkt_size_system.ruby.l1_cntrl3.sequencer.mem-master-port::total         3646                       # Cumulative packet size per connected master and slave (bytes)
system.iobus.pkt_size::total                    15610                       # Cumulative packet size per connected master and slave (bytes)
system.iobus.reqLayer2.occupancy              3940500                       # Layer occupancy (ticks)
system.iobus.reqLayer2.utilization                0.0                       # Layer utilization (%)
system.iobus.reqLayer8.occupancy                26996                       # Layer occupancy (ticks)
system.iobus.reqLayer8.utilization                0.0                       # Layer utilization (%)
system.iobus.reqLayer12.occupancy              114500                       # Layer occupancy (ticks)
system.iobus.reqLayer12.utilization               0.0                       # Layer utilization (%)
system.iobus.reqLayer17.occupancy             1989974                       # Layer occupancy (ticks)
system.iobus.reqLayer17.utilization               0.0                       # Layer utilization (%)
system.iobus.reqLayer18.occupancy             2005975                       # Layer occupancy (ticks)
system.iobus.reqLayer18.utilization               0.0                       # Layer utilization (%)
system.iobus.reqLayer19.occupancy             2181749                       # Layer occupancy (ticks)
system.iobus.reqLayer19.utilization               0.0                       # Layer utilization (%)
system.iobus.reqLayer20.occupancy             1993975                       # Layer occupancy (ticks)
system.iobus.reqLayer20.utilization               0.0                       # Layer utilization (%)
system.iobus.respLayer0.occupancy              179901                       # Layer occupancy (ticks)
system.iobus.respLayer0.utilization               0.0                       # Layer utilization (%)
system.iobus.respLayer2.occupancy             2052000                       # Layer occupancy (ticks)
system.iobus.respLayer2.utilization               0.0                       # Layer utilization (%)
system.iobus.respLayer4.occupancy             2200000                       # Layer occupancy (ticks)
system.iobus.respLayer4.utilization               0.0                       # Layer utilization (%)
system.iobus.respLayer6.occupancy             1857500                       # Layer occupancy (ticks)
system.iobus.respLayer6.utilization               0.0                       # Layer utilization (%)
system.iobus.respLayer8.occupancy             1818000                       # Layer occupancy (ticks)
system.iobus.respLayer8.utilization               0.0                       # Layer utilization (%)
system.pc.south_bridge.ide.disks.dma_read_full_pages         1523                       # Number of full page size DMA reads (not PRD).
system.pc.south_bridge.ide.disks.dma_read_bytes      6238208                       # Number of bytes transfered via DMA reads (not PRD).
system.pc.south_bridge.ide.disks.dma_read_txs         1523                       # Number of DMA read transactions (not PRD).
system.pc.south_bridge.ide.disks.dma_write_full_pages           45                       # Number of full page size DMA writes.
system.pc.south_bridge.ide.disks.dma_write_bytes       184320                       # Number of bytes transfered via DMA writes.
system.pc.south_bridge.ide.disks.dma_write_txs           45                       # Number of DMA write transactions.
system.ruby.clk_domain.clock                      500                       # Clock period in ticks
system.ruby.outstanding_req_hist_seqr::bucket_size            1                      
system.ruby.outstanding_req_hist_seqr::max_bucket            9                      
system.ruby.outstanding_req_hist_seqr::samples   2881986902                      
system.ruby.outstanding_req_hist_seqr::mean     1.000000                      
system.ruby.outstanding_req_hist_seqr::gmean     1.000000                      
system.ruby.outstanding_req_hist_seqr::stdev     0.000341                      
system.ruby.outstanding_req_hist_seqr    |           0      0.00%      0.00% |  2881986567    100.00%    100.00% |         335      0.00%    100.00% |           0      0.00%    100.00% |           0      0.00%    100.00% |           0      0.00%    100.00% |           0      0.00%    100.00% |           0      0.00%    100.00% |           0      0.00%    100.00% |           0      0.00%    100.00%
system.ruby.outstanding_req_hist_seqr::total   2881986902                      
system.ruby.latency_hist_seqr::bucket_size          128                      
system.ruby.latency_hist_seqr::max_bucket         1279                      
system.ruby.latency_hist_seqr::samples     2881986902                      
system.ruby.latency_hist_seqr::mean          1.075139                      
system.ruby.latency_hist_seqr::gmean         1.012613                      
system.ruby.latency_hist_seqr::stdev         1.379691                      
system.ruby.latency_hist_seqr            |  2881952392    100.00%    100.00% |       32451      0.00%    100.00% |         516      0.00%    100.00% |         366      0.00%    100.00% |         822      0.00%    100.00% |         350      0.00%    100.00% |           2      0.00%    100.00% |           2      0.00%    100.00% |           1      0.00%    100.00% |           0      0.00%    100.00%
system.ruby.latency_hist_seqr::total       2881986902                      
system.ruby.hit_latency_hist_seqr::bucket_size            1                      
system.ruby.hit_latency_hist_seqr::max_bucket            9                      
system.ruby.hit_latency_hist_seqr::samples   2869345216                      
system.ruby.hit_latency_hist_seqr::mean             1                      
system.ruby.hit_latency_hist_seqr::gmean            1                      
[...]
system.ruby.L1Cache_Controller.O.Fwd_GETS |        1870     13.06%     13.06% |        8225     57.43%     70.48% |         460      3.21%     73.69% |        3768     26.31%    100.00%
system.ruby.L1Cache_Controller.O.Fwd_GETS::total        14323                      
system.ruby.L1Cache_Controller.M.Load    |       69182      2.42%      2.42% |       78195      2.74%      5.16% |     2653320     92.84%     97.99% |       57379      2.01%    100.00%
system.ruby.L1Cache_Controller.M.Load::total      2858076                      
system.ruby.L1Cache_Controller.M.Store   |        9616      8.68%      8.68% |        6341      5.73%     14.41% |       89594     80.92%     95.33% |        5174      4.67%    100.00%
system.ruby.L1Cache_Controller.M.Store::total       110725                      
system.ruby.L1Cache_Controller.M.L1_Replacement |        8149      2.40%      2.40% |        5283      1.55%      3.95% |      320188     94.16%     98.11% |        6435      1.89%    100.00%
system.ruby.L1Cache_Controller.M.L1_Replacement::total       340055                      
system.ruby.L1Cache_Controller.M.Fwd_GETX |        1173     52.96%     52.96% |         233     10.52%     63.48% |         595     26.86%     90.34% |         214      9.66%    100.00%
system.ruby.L1Cache_Controller.M.Fwd_GETX::total         2215                      
system.ruby.L1Cache_Controller.M.Fwd_GETS |        4189     23.42%     23.42% |        7767     43.43%     66.85% |        1293      7.23%     74.08% |        4636     25.92%    100.00%
system.ruby.L1Cache_Controller.M.Fwd_GETS::total        17885                      
system.ruby.L1Cache_Controller.M_W.Load  |       21145     11.38%     11.38% |       13220      7.12%     18.50% |      138784     74.71%     93.21% |       12620      6.79%    100.00%
system.ruby.L1Cache_Controller.M_W.Load::total       185769                      
system.ruby.L1Cache_Controller.M_W.Store |        3463     10.04%     10.04% |        2429      7.04%     17.08% |       26633     77.19%     94.26% |        1979      5.74%    100.00%
system.ruby.L1Cache_Controller.M_W.Store::total        34504                      
system.ruby.L1Cache_Controller.M_W.L1_Replacement |           0      0.00%      0.00% |           0      0.00%      0.00% |           6     66.67%     66.67% |           3     33.33%    100.00%
system.ruby.L1Cache_Controller.M_W.L1_Replacement::total            9                      
system.ruby.L1Cache_Controller.M_W.Fwd_GETX |          83     65.87%     65.87% |          16     12.70%     78.57% |          24     19.05%     97.62% |           3      2.38%    100.00%
system.ruby.L1Cache_Controller.M_W.Fwd_GETX::total          126                      
system.ruby.L1Cache_Controller.M_W.Fwd_GETS |         224     51.49%     51.49% |          52     11.95%     63.45% |          98     22.53%     85.98% |          61     14.02%    100.00%
system.ruby.L1Cache_Controller.M_W.Fwd_GETS::total          435                      
system.ruby.L1Cache_Controller.M_W.Use_Timeout |       23265      4.94%      4.94% |       19667      4.17%      9.11% |      411630     87.37%     96.48% |       16592      3.52%    100.00%
system.ruby.L1Cache_Controller.M_W.Use_Timeout::total       471154                      
system.ruby.L1Cache_Controller.MM.Load   |     1968738      0.96%      0.96% |     1088360      0.53%      1.49% |   201852946     98.15%     99.64% |      745685      0.36%    100.00%
system.ruby.L1Cache_Controller.MM.Load::total    205655729                      
system.ruby.L1Cache_Controller.MM.Store  |     2096305      1.23%      1.23% |     1053858      0.62%      1.84% |   167135998     97.69%     99.53% |      801696      0.47%    100.00%
system.ruby.L1Cache_Controller.MM.Store::total    171087857                      
system.ruby.L1Cache_Controller.MM.L1_Replacement |       47472      4.81%      4.81% |       37724      3.82%      8.63% |      874115     88.58%     97.22% |       27477      2.78%    100.00%
system.ruby.L1Cache_Controller.MM.L1_Replacement::total       986788                      
system.ruby.L1Cache_Controller.MM.Fwd_GETX |        2588     27.87%     27.87% |        2718     29.27%     57.13% |        2305     24.82%     81.95% |        1676     18.05%    100.00%
system.ruby.L1Cache_Controller.MM.Fwd_GETX::total         9287                      
system.ruby.L1Cache_Controller.MM.Fwd_GETS |        9475     40.91%     40.91% |        5473     23.63%     64.53% |        4239     18.30%     82.83% |        3976     17.17%    100.00%
system.ruby.L1Cache_Controller.MM.Fwd_GETS::total        23163                      
system.ruby.L1Cache_Controller.MM.Fwd_DMA |         219     28.52%     28.52% |         264     34.38%     62.89% |         131     17.06%     79.95% |         154     20.05%    100.00%
system.ruby.L1Cache_Controller.MM.Fwd_DMA::total          768                      
system.ruby.L1Cache_Controller.MM_W.Load |        6887      3.50%      3.50% |        9110      4.63%      8.12% |      179084     90.96%     99.08% |        1806      0.92%    100.00%
system.ruby.L1Cache_Controller.MM_W.Load::total       196887                      
system.ruby.L1Cache_Controller.MM_W.Store |       89287      8.36%      8.36% |       84728      7.93%     16.30% |      830856     77.81%     94.11% |       62940      5.89%    100.00%
system.ruby.L1Cache_Controller.MM_W.Store::total      1067811                      
system.ruby.L1Cache_Controller.MM_W.L1_Replacement |           0      0.00%      0.00% |           0      0.00%      0.00% |          14    100.00%    100.00% |           0      0.00%    100.00%
system.ruby.L1Cache_Controller.MM_W.L1_Replacement::total           14                      
system.ruby.L1Cache_Controller.MM_W.Fwd_GETX |          28     52.83%     52.83% |           0      0.00%     52.83% |          19     35.85%     88.68% |           6     11.32%    100.00%
system.ruby.L1Cache_Controller.MM_W.Fwd_GETX::total           53                      
system.ruby.L1Cache_Controller.MM_W.Fwd_GETS |         529     17.83%     17.83% |         654     22.04%     39.87% |         920     31.01%     70.88% |         864     29.12%    100.00%
system.ruby.L1Cache_Controller.MM_W.Fwd_GETS::total         2967                      
system.ruby.L1Cache_Controller.MM_W.Use_Timeout |       49717      5.47%      5.47% |       40511      4.46%      9.93% |      790657     86.97%     96.90% |       28191      3.10%    100.00%
system.ruby.L1Cache_Controller.MM_W.Use_Timeout::total       909076                      
system.ruby.L1Cache_Controller.IM.Ack    |        9602     39.00%     39.00% |        5136     20.86%     59.85% |        3974     16.14%     75.99% |        5911     24.01%    100.00%
system.ruby.L1Cache_Controller.IM.Ack::total        24623                      
system.ruby.L1Cache_Controller.IM.Exclusive_Data |       34539      4.14%      4.14% |       26596      3.19%      7.32% |      752290     90.09%     97.41% |       21602      2.59%    100.00%
system.ruby.L1Cache_Controller.IM.Exclusive_Data::total       835027                      
system.ruby.L1Cache_Controller.SM.Inv    |           0      0.00%      0.00% |           0      0.00%      0.00% |           0      0.00%      0.00% |           1    100.00%    100.00%
system.ruby.L1Cache_Controller.SM.Inv::total            1                      
system.ruby.L1Cache_Controller.SM.Ack    |        7264     56.99%     56.99% |        1471     11.54%     68.53% |        2077     16.29%     84.82% |        1935     15.18%    100.00%
system.ruby.L1Cache_Controller.SM.Ack::total        12747                      
system.ruby.L1Cache_Controller.SM.Exclusive_Data |       11613     29.59%     29.59% |       11373     28.98%     58.58% |       11675     29.75%     88.33% |        4579     11.67%    100.00%
system.ruby.L1Cache_Controller.SM.Exclusive_Data::total        39240                      
system.ruby.L1Cache_Controller.OM.Own_GETX |         102     33.44%     33.44% |         113     37.05%     70.49% |          59     19.34%     89.84% |          31     10.16%    100.00%
system.ruby.L1Cache_Controller.OM.Own_GETX::total          305                      
system.ruby.L1Cache_Controller.OM.Ack    |         772     22.87%     22.87% |         941     27.87%     50.74% |         595     17.62%     68.36% |        1068     31.64%    100.00%
system.ruby.L1Cache_Controller.OM.Ack::total         3376                      
system.ruby.L1Cache_Controller.OM.All_acks |       46254      5.29%      5.29% |       38082      4.35%      9.64% |      764024     87.36%     97.00% |       26212      3.00%    100.00%
system.ruby.L1Cache_Controller.OM.All_acks::total       874572                      
system.ruby.L1Cache_Controller.IS.Data   |      175438      1.51%      1.51% |      131458      1.13%      2.64% |    11192658     96.42%     99.07% |      108532      0.93%    100.00%
system.ruby.L1Cache_Controller.IS.Data::total     11608086                      
system.ruby.L1Cache_Controller.IS.Exclusive_Data |       26728      5.29%      5.29% |       22096      4.37%      9.66% |      438263     86.67%     96.33% |       18571      3.67%    100.00%
system.ruby.L1Cache_Controller.IS.Exclusive_Data::total       505658                      
system.ruby.L1Cache_Controller.SI.Ifetch |           0      0.00%      0.00% |           2     50.00%     50.00% |           0      0.00%     50.00% |           2     50.00%    100.00%
system.ruby.L1Cache_Controller.SI.Ifetch::total            4                      
system.ruby.L1Cache_Controller.SI.Writeback_Ack |      105298      0.92%      0.92% |      102804      0.90%      1.82% |    11117744     97.43%     99.25% |       85734      0.75%    100.00%
system.ruby.L1Cache_Controller.SI.Writeback_Ack::total     11411580                      
system.ruby.L1Cache_Controller.SI.Writeback_Ack_Data |       56198     39.32%     39.32% |       13927      9.74%     49.06% |       60321     42.20%     91.26% |       12491      8.74%    100.00%
system.ruby.L1Cache_Controller.SI.Writeback_Ack_Data::total       142937                      
system.ruby.L1Cache_Controller.OI.Writeback_Ack_Data |         556     26.81%     26.81% |         499     24.06%     50.87% |         370     17.84%     68.71% |         649     31.29%    100.00%
system.ruby.L1Cache_Controller.OI.Writeback_Ack_Data::total         2074                      
system.ruby.L1Cache_Controller.MI.Load   |           0      0.00%      0.00% |           0      0.00%      0.00% |           0      0.00%      0.00% |           6    100.00%    100.00%
system.ruby.L1Cache_Controller.MI.Load::total            6                      
system.ruby.L1Cache_Controller.MI.Fwd_GETS |           1    100.00%    100.00% |           0      0.00%    100.00% |           0      0.00%    100.00% |           0      0.00%    100.00%
system.ruby.L1Cache_Controller.MI.Fwd_GETS::total            1                      
system.ruby.L1Cache_Controller.MI.Writeback_Ack_Data |       55620      4.19%      4.19% |       43007      3.24%      7.43% |     1194303     90.01%     97.44% |       33912      2.56%    100.00%
system.ruby.L1Cache_Controller.MI.Writeback_Ack_Data::total      1326842                      
system.ruby.L2Cache_Controller.L1_GETS       12116547      0.00%      0.00%
system.ruby.L2Cache_Controller.L1_GETX         874604      0.00%      0.00%
system.ruby.L2Cache_Controller.L1_PUTO           2073      0.00%      0.00%
system.ruby.L2Cache_Controller.L1_PUTX        1326845      0.00%      0.00%
system.ruby.L2Cache_Controller.L1_PUTS_only     11261003      0.00%      0.00%
system.ruby.L2Cache_Controller.L1_PUTS         293523      0.00%      0.00%
system.ruby.L2Cache_Controller.Fwd_GETX           256      0.00%      0.00%
system.ruby.L2Cache_Controller.Fwd_DMA           1810      0.00%      0.00%
system.ruby.L2Cache_Controller.IntAck               3      0.00%      0.00%
system.ruby.L2Cache_Controller.All_Acks         82104      0.00%      0.00%
system.ruby.L2Cache_Controller.Data            250073      0.00%      0.00%
system.ruby.L2Cache_Controller.Data_Exclusive          170      0.00%      0.00%
system.ruby.L2Cache_Controller.L1_WBCLEANDATA       142937      0.00%      0.00%
system.ruby.L2Cache_Controller.L1_WBDIRTYDATA      1328916      0.00%      0.00%
system.ruby.L2Cache_Controller.Writeback_Ack        58078      0.00%      0.00%
system.ruby.L2Cache_Controller.Unblock       23019666      0.00%      0.00%
system.ruby.L2Cache_Controller.Exclusive_Unblock      1380230      0.00%      0.00%
system.ruby.L2Cache_Controller.DmaAck             768      0.00%      0.00%
system.ruby.L2Cache_Controller.L2_Replacement       179176      0.00%      0.00%
system.ruby.L2Cache_Controller.NP.L1_GETS       167972      0.00%      0.00%
system.ruby.L2Cache_Controller.NP.L1_GETX        45970      0.00%      0.00%
system.ruby.L2Cache_Controller.ILS.L1_GETS         6515      0.00%      0.00%
system.ruby.L2Cache_Controller.ILS.L1_GETX        28687      0.00%      0.00%
system.ruby.L2Cache_Controller.ILS.L1_PUTS_only       136976      0.00%      0.00%
system.ruby.L2Cache_Controller.ILS.L1_PUTS         5961      0.00%      0.00%
system.ruby.L2Cache_Controller.ILX.L1_GETS        41049      0.00%      0.00%
system.ruby.L2Cache_Controller.ILX.L1_GETX        11502      0.00%      0.00%
system.ruby.L2Cache_Controller.ILX.L1_PUTX      1326842      0.00%      0.00%
system.ruby.L2Cache_Controller.ILX.Fwd_DMA          768      0.00%      0.00%
system.ruby.L2Cache_Controller.ILOX.L1_GETS         6278      0.00%      0.00%
system.ruby.L2Cache_Controller.ILOX.L1_GETX         3052      0.00%      0.00%
system.ruby.L2Cache_Controller.ILOX.L1_PUTO         1029      0.00%      0.00%
system.ruby.L2Cache_Controller.ILOX.Fwd_GETX          170      0.00%      0.00%
system.ruby.L2Cache_Controller.ILOSX.L1_GETS         8045      0.00%      0.00%
system.ruby.L2Cache_Controller.ILOSX.L1_GETX        12768      0.00%      0.00%
system.ruby.L2Cache_Controller.ILOSX.L1_PUTO         1044      0.00%      0.00%
system.ruby.L2Cache_Controller.ILOSX.L1_PUTX            1      0.00%      0.00%
system.ruby.L2Cache_Controller.ILOSX.L1_PUTS_only        10563      0.00%      0.00%
system.ruby.L2Cache_Controller.ILOSX.L1_PUTS         2162      0.00%      0.00%
system.ruby.L2Cache_Controller.S.L1_GETS     11115225      0.00%      0.00%
system.ruby.L2Cache_Controller.S.L1_GETX         3661      0.00%      0.00%
system.ruby.L2Cache_Controller.S.L2_Replacement       117278      0.00%      0.00%
system.ruby.L2Cache_Controller.OLSX.L1_GETS        11687      0.00%      0.00%
system.ruby.L2Cache_Controller.OLSX.L1_GETX          270      0.00%      0.00%
system.ruby.L2Cache_Controller.OLSX.L1_PUTS_only          656      0.00%      0.00%
system.ruby.L2Cache_Controller.OLSX.L1_PUTS        11509      0.00%      0.00%
system.ruby.L2Cache_Controller.OLSX.Fwd_GETX            3      0.00%      0.00%
system.ruby.L2Cache_Controller.OLSX.L2_Replacement          169      0.00%      0.00%
system.ruby.L2Cache_Controller.SLS.L1_GETS       274478      0.00%      0.00%
system.ruby.L2Cache_Controller.SLS.L1_GETX         3783      0.00%      0.00%
system.ruby.L2Cache_Controller.SLS.L1_PUTS_only     11112806      0.00%      0.00%
system.ruby.L2Cache_Controller.SLS.L1_PUTS       273884      0.00%      0.00%
system.ruby.L2Cache_Controller.SLS.L2_Replacement         3820      0.00%      0.00%
system.ruby.L2Cache_Controller.M.L1_GETS       482495      0.00%      0.00%
system.ruby.L2Cache_Controller.M.L1_GETX       764879      0.00%      0.00%
system.ruby.L2Cache_Controller.M.Fwd_GETX           83      0.00%      0.00%
system.ruby.L2Cache_Controller.M.Fwd_DMA         1042      0.00%      0.00%
system.ruby.L2Cache_Controller.M.L2_Replacement        57909      0.00%      0.00%
system.ruby.L2Cache_Controller.IFGX.Data_Exclusive          170      0.00%      0.00%
system.ruby.L2Cache_Controller.OLSF.IntAck            3      0.00%      0.00%
system.ruby.L2Cache_Controller.OLSF.All_Acks            3      0.00%      0.00%
system.ruby.L2Cache_Controller.ILOXW.L1_WBDIRTYDATA         1029      0.00%      0.00%
system.ruby.L2Cache_Controller.ILOXW.Unblock        10563      0.00%      0.00%
system.ruby.L2Cache_Controller.ILOSXW.L1_WBDIRTYDATA         1045      0.00%      0.00%
system.ruby.L2Cache_Controller.ILOSXW.Unblock         2162      0.00%      0.00%
system.ruby.L2Cache_Controller.SLSW.L1_GETS            5      0.00%      0.00%
system.ruby.L2Cache_Controller.SLSW.L1_PUTS            3      0.00%      0.00%
system.ruby.L2Cache_Controller.SLSW.Unblock       273884      0.00%      0.00%
system.ruby.L2Cache_Controller.ILSW.L1_WBCLEANDATA         5961      0.00%      0.00%
system.ruby.L2Cache_Controller.IW.L1_WBCLEANDATA       136976      0.00%      0.00%
system.ruby.L2Cache_Controller.SW.L1_GETS            3      0.00%      0.00%
system.ruby.L2Cache_Controller.SW.Unblock     11112806      0.00%      0.00%
system.ruby.L2Cache_Controller.OXW.Unblock          656      0.00%      0.00%
system.ruby.L2Cache_Controller.OLSXW.Unblock        11509      0.00%      0.00%
system.ruby.L2Cache_Controller.ILXW.L1_WBDIRTYDATA      1326842      0.00%      0.00%
system.ruby.L2Cache_Controller.IFLS.L1_GETS            3      0.00%      0.00%
system.ruby.L2Cache_Controller.IFLS.Unblock         6515      0.00%      0.00%
system.ruby.L2Cache_Controller.IFLOX.Unblock         6278      0.00%      0.00%
system.ruby.L2Cache_Controller.IFLOX.Exclusive_Unblock          270      0.00%      0.00%
system.ruby.L2Cache_Controller.IFLOXX.L1_GETS          242      0.00%      0.00%
system.ruby.L2Cache_Controller.IFLOXX.L1_GETX           28      0.00%      0.00%
system.ruby.L2Cache_Controller.IFLOXX.L1_PUTX            2      0.00%      0.00%
system.ruby.L2Cache_Controller.IFLOXX.Unblock        17886      0.00%      0.00%
system.ruby.L2Cache_Controller.IFLOXX.Exclusive_Unblock        37717      0.00%      0.00%
system.ruby.L2Cache_Controller.IFLOSX.Unblock         8045      0.00%      0.00%
system.ruby.L2Cache_Controller.IFLXO.L1_GETS          100      0.00%      0.00%
system.ruby.L2Cache_Controller.IFLXO.L1_GETX            4      0.00%      0.00%
system.ruby.L2Cache_Controller.IFLXO.Exclusive_Unblock        12768      0.00%      0.00%
system.ruby.L2Cache_Controller.IGS.L1_GETS         2443      0.00%      0.00%
system.ruby.L2Cache_Controller.IGS.Data        167972      0.00%      0.00%
system.ruby.L2Cache_Controller.IGS.Unblock       167972      0.00%      0.00%
system.ruby.L2Cache_Controller.IGM.Data         49631      0.00%      0.00%
system.ruby.L2Cache_Controller.IGMLS.Data        32470      0.00%      0.00%
system.ruby.L2Cache_Controller.IGMO.All_Acks        82101      0.00%      0.00%
system.ruby.L2Cache_Controller.IGMO.Exclusive_Unblock        82101      0.00%      0.00%
system.ruby.L2Cache_Controller.MM.Exclusive_Unblock       764879      0.00%      0.00%
system.ruby.L2Cache_Controller.SS.L1_GETS            4      0.00%      0.00%
system.ruby.L2Cache_Controller.SS.Unblock     11115225      0.00%      0.00%
system.ruby.L2Cache_Controller.OO.L1_GETS            1      0.00%      0.00%
system.ruby.L2Cache_Controller.OO.Exclusive_Unblock       482495      0.00%      0.00%
system.ruby.L2Cache_Controller.OLSXS.Unblock        11687      0.00%      0.00%
system.ruby.L2Cache_Controller.SLSS.L1_GETS            2      0.00%      0.00%
system.ruby.L2Cache_Controller.SLSS.L1_PUTS_only            2      0.00%      0.00%
system.ruby.L2Cache_Controller.SLSS.L1_PUTS            4      0.00%      0.00%
system.ruby.L2Cache_Controller.SLSS.Unblock       274478      0.00%      0.00%
system.ruby.L2Cache_Controller.MI.Writeback_Ack        57909      0.00%      0.00%
system.ruby.L2Cache_Controller.OLSI.Writeback_Ack          169      0.00%      0.00%
system.ruby.L2Cache_Controller.ILXD.DmaAck          768      0.00%      0.00%

---------- End Simulation Statistics   ----------
