
---------- Begin Simulation Statistics ----------
sim_seconds                                  2.371779                       # Number of seconds simulated
sim_ticks                                2371779096000                       # Number of ticks simulated
final_tick                               54934972067501                       # Number of ticks from beginning of simulation (restored from checkpoints and never reset)
sim_freq                                 1000000000000                       # Frequency of simulated ticks
host_inst_rate                                 147077                       # Simulator instruction rate (inst/s)
host_op_rate                                   266603                       # Simulator op (including micro ops) rate (op/s)
host_tick_rate                              265699083                       # Simulator tick rate (ticks/s)
host_mem_usage                                1997608                       # Number of bytes of host memory used
host_seconds                                  8926.56                       # Real time elapsed on the host
sim_insts                                  1312896006                       # Number of instructions simulated
sim_ops                                    2379843576                       # Number of ops (including micro ops) simulated
system.voltage_domain.voltage                       1                       # Voltage in Volts
system.clk_domain.clock                          1000                       # Clock period in ticks
system.mem_ctrls.bytes_read::ruby.dir_cntrl0    106071296                       # Number of bytes read from this memory
system.mem_ctrls.bytes_read::total          106071296                       # Number of bytes read from this memory
system.mem_ctrls.bytes_written::ruby.dir_cntrl0     48697344                       # Number of bytes written to this memory
system.mem_ctrls.bytes_written::total        48697344                       # Number of bytes written to this memory
system.mem_ctrls.num_reads::ruby.dir_cntrl0      1657364                       # Number of read requests responded to by this memory
system.mem_ctrls.num_reads::total             1657364                       # Number of read requests responded to by this memory
system.mem_ctrls.num_writes::ruby.dir_cntrl0       760896                       # Number of write requests responded to by this memory
system.mem_ctrls.num_writes::total             760896                       # Number of write requests responded to by this memory
system.mem_ctrls.bw_read::ruby.dir_cntrl0     44722249                       # Total read bandwidth from this memory (bytes/s)
system.mem_ctrls.bw_read::total              44722249                       # Total read bandwidth from this memory (bytes/s)
system.mem_ctrls.bw_write::ruby.dir_cntrl0     20531990                       # Write bandwidth from this memory (bytes/s)
system.mem_ctrls.bw_write::total             20531990                       # Write bandwidth from this memory (bytes/s)
system.mem_ctrls.bw_total::ruby.dir_cntrl0     65254239                       # Total bandwidth to/from this memory (bytes/s)
system.mem_ctrls.bw_total::total             65254239                       # Total bandwidth to/from this memory (bytes/s)
system.mem_ctrls.readReqs                     1657364                       # Number of read requests accepted
system.mem_ctrls.writeReqs                     760896                       # Number of write requests accepted
system.mem_ctrls.readBursts                   1657364                       # Number of DRAM read bursts, including those serviced by the write queue
system.mem_ctrls.writeBursts                   760896                       # Number of DRAM write bursts, including those merged in the write queue
system.mem_ctrls.bytesReadDRAM              106008448                       # Total number of bytes read from DRAM
system.mem_ctrls.bytesReadWrQ                   62848                       # Total number of bytes read from write queue
system.mem_ctrls.bytesWritten                48698368                       # Total number of bytes written to DRAM
system.mem_ctrls.bytesReadSys               106071296                       # Total read bytes from the system interface side
system.mem_ctrls.bytesWrittenSys             48697344                       # Total written bytes from the system interface side
system.mem_ctrls.servicedByWrQ                    982                       # Number of DRAM read bursts serviced by the write queue
system.mem_ctrls.mergedWrBursts                     0                       # Number of DRAM write bursts merged with an existing one
system.mem_ctrls.neitherReadNorWriteReqs            0                       # Number of requests that are neither read nor write
system.mem_ctrls.perBankRdBursts::0            104202                       # Per bank write bursts
system.mem_ctrls.perBankRdBursts::1             99183                       # Per bank write bursts
system.mem_ctrls.perBankRdBursts::2            102801                       # Per bank write bursts
system.mem_ctrls.perBankRdBursts::3            102290                       # Per bank write bursts
system.mem_ctrls.perBankRdBursts::4            104337                       # Per bank write bursts
system.mem_ctrls.perBankRdBursts::5            107858                       # Per bank write bursts
system.mem_ctrls.perBankRdBursts::6            106508                       # Per bank write bursts
system.mem_ctrls.perBankRdBursts::7            104217                       # Per bank write bursts
system.mem_ctrls.perBankRdBursts::8            104568                       # Per bank write bursts
system.mem_ctrls.perBankRdBursts::9            104429                       # Per bank write bursts
system.mem_ctrls.perBankRdBursts::10           100527                       # Per bank write bursts
system.mem_ctrls.perBankRdBursts::11           102199                       # Per bank write bursts
system.mem_ctrls.perBankRdBursts::12           105756                       # Per bank write bursts
system.mem_ctrls.perBankRdBursts::13           100935                       # Per bank write bursts
system.mem_ctrls.perBankRdBursts::14           101436                       # Per bank write bursts
system.mem_ctrls.perBankRdBursts::15           105136                       # Per bank write bursts
system.mem_ctrls.perBankWrBursts::0             47342                       # Per bank write bursts
system.mem_ctrls.perBankWrBursts::1             46016                       # Per bank write bursts
system.mem_ctrls.perBankWrBursts::2             46512                       # Per bank write bursts
system.mem_ctrls.perBankWrBursts::3             47320                       # Per bank write bursts
system.mem_ctrls.perBankWrBursts::4             48080                       # Per bank write bursts
system.mem_ctrls.perBankWrBursts::5             49164                       # Per bank write bursts
system.mem_ctrls.perBankWrBursts::6             49263                       # Per bank write bursts
system.mem_ctrls.perBankWrBursts::7             47971                       # Per bank write bursts
system.mem_ctrls.perBankWrBursts::8             48975                       # Per bank write bursts
system.mem_ctrls.perBankWrBursts::9             48199                       # Per bank write bursts
system.mem_ctrls.perBankWrBursts::10            46607                       # Per bank write bursts
system.mem_ctrls.perBankWrBursts::11            47422                       # Per bank write bursts
system.mem_ctrls.perBankWrBursts::12            47944                       # Per bank write bursts
system.mem_ctrls.perBankWrBursts::13            46338                       # Per bank write bursts
system.mem_ctrls.perBankWrBursts::14            46676                       # Per bank write bursts
system.mem_ctrls.perBankWrBursts::15            47083                       # Per bank write bursts
system.mem_ctrls.numRdRetry                         0                       # Number of times read queue was full causing retry
system.mem_ctrls.numWrRetry                         0                       # Number of times write queue was full causing retry
system.mem_ctrls.totGap                  2371779060000                       # Total gap between requests
system.mem_ctrls.readPktSize::0                     0                       # Read request sizes (log2)
system.mem_ctrls.readPktSize::1                     0                       # Read request sizes (log2)
system.mem_ctrls.readPktSize::2                     0                       # Read request sizes (log2)
system.mem_ctrls.readPktSize::3                     0                       # Read request sizes (log2)
system.mem_ctrls.readPktSize::4                     0                       # Read request sizes (log2)
system.mem_ctrls.readPktSize::5                     0                       # Read request sizes (log2)
system.mem_ctrls.readPktSize::6               1657364                       # Read request sizes (log2)
system.mem_ctrls.writePktSize::0                    0                       # Write request sizes (log2)
system.mem_ctrls.writePktSize::1                    0                       # Write request sizes (log2)
system.mem_ctrls.writePktSize::2                    0                       # Write request sizes (log2)
system.mem_ctrls.writePktSize::3                    0                       # Write request sizes (log2)
system.mem_ctrls.writePktSize::4                    0                       # Write request sizes (log2)
system.mem_ctrls.writePktSize::5                    0                       # Write request sizes (log2)
system.mem_ctrls.writePktSize::6               760896                       # Write request sizes (log2)
system.mem_ctrls.rdQLenPdf::0                 1654505                       # What read queue length does an incoming req see
system.mem_ctrls.rdQLenPdf::1                    1877                       # What read queue length does an incoming req see
system.mem_ctrls.rdQLenPdf::2                       0                       # What read queue length does an incoming req see
system.mem_ctrls.rdQLenPdf::3                       0                       # What read queue length does an incoming req see
system.mem_ctrls.rdQLenPdf::4                       0                       # What read queue length does an incoming req see
system.mem_ctrls.rdQLenPdf::5                       0                       # What read queue length does an incoming req see
system.mem_ctrls.rdQLenPdf::6                       0                       # What read queue length does an incoming req see
system.mem_ctrls.rdQLenPdf::7                       0                       # What read queue length does an incoming req see
system.mem_ctrls.rdQLenPdf::8                       0                       # What read queue length does an incoming req see
system.mem_ctrls.rdQLenPdf::9                       0                       # What read queue length does an incoming req see
system.mem_ctrls.rdQLenPdf::10                      0                       # What read queue length does an incoming req see
system.mem_ctrls.rdQLenPdf::11                      0                       # What read queue length does an incoming req see
system.mem_ctrls.rdQLenPdf::12                      0                       # What read queue length does an incoming req see
system.mem_ctrls.rdQLenPdf::13                      0                       # What read queue length does an incoming req see
system.mem_ctrls.rdQLenPdf::14                      0                       # What read queue length does an incoming req see
system.mem_ctrls.rdQLenPdf::15                      0                       # What read queue length does an incoming req see
system.mem_ctrls.rdQLenPdf::16                      0                       # What read queue length does an incoming req see
system.mem_ctrls.rdQLenPdf::17                      0                       # What read queue length does an incoming req see
system.mem_ctrls.rdQLenPdf::18                      0                       # What read queue length does an incoming req see
system.mem_ctrls.rdQLenPdf::19                      0                       # What read queue length does an incoming req see
system.mem_ctrls.rdQLenPdf::20                      0                       # What read queue length does an incoming req see
system.mem_ctrls.rdQLenPdf::21                      0                       # What read queue length does an incoming req see
system.mem_ctrls.rdQLenPdf::22                      0                       # What read queue length does an incoming req see
system.mem_ctrls.rdQLenPdf::23                      0                       # What read queue length does an incoming req see
system.mem_ctrls.rdQLenPdf::24                      0                       # What read queue length does an incoming req see
system.mem_ctrls.rdQLenPdf::25                      0                       # What read queue length does an incoming req see
system.mem_ctrls.rdQLenPdf::26                      0                       # What read queue length does an incoming req see
system.mem_ctrls.rdQLenPdf::27                      0                       # What read queue length does an incoming req see
system.mem_ctrls.rdQLenPdf::28                      0                       # What read queue length does an incoming req see
system.mem_ctrls.rdQLenPdf::29                      0                       # What read queue length does an incoming req see
system.mem_ctrls.rdQLenPdf::30                      0                       # What read queue length does an incoming req see
system.mem_ctrls.rdQLenPdf::31                      0                       # What read queue length does an incoming req see
system.mem_ctrls.wrQLenPdf::0                       0                       # What write queue length does an incoming req see
system.mem_ctrls.wrQLenPdf::1                       0                       # What write queue length does an incoming req see
system.mem_ctrls.wrQLenPdf::2                       0                       # What write queue length does an incoming req see
system.mem_ctrls.wrQLenPdf::3                       0                       # What write queue length does an incoming req see
system.mem_ctrls.wrQLenPdf::4                       0                       # What write queue length does an incoming req see
system.mem_ctrls.wrQLenPdf::5                       0                       # What write queue length does an incoming req see
system.mem_ctrls.wrQLenPdf::6                       0                       # What write queue length does an incoming req see
system.mem_ctrls.wrQLenPdf::7                       0                       # What write queue length does an incoming req see
system.mem_ctrls.wrQLenPdf::8                       0                       # What write queue length does an incoming req see
system.mem_ctrls.wrQLenPdf::9                       0                       # What write queue length does an incoming req see
system.mem_ctrls.wrQLenPdf::10                      0                       # What write queue length does an incoming req see
system.mem_ctrls.wrQLenPdf::11                      0                       # What write queue length does an incoming req see
system.mem_ctrls.wrQLenPdf::12                      0                       # What write queue length does an incoming req see
system.mem_ctrls.wrQLenPdf::13                      0                       # What write queue length does an incoming req see
system.mem_ctrls.wrQLenPdf::14                      0                       # What write queue length does an incoming req see
system.mem_ctrls.wrQLenPdf::15                  23570                       # What write queue length does an incoming req see
system.mem_ctrls.wrQLenPdf::16                  24688                       # What write queue length does an incoming req see
system.mem_ctrls.wrQLenPdf::17                  37820                       # What write queue length does an incoming req see
system.mem_ctrls.wrQLenPdf::18                  45479                       # What write queue length does an incoming req see
system.mem_ctrls.wrQLenPdf::19                  45964                       # What write queue length does an incoming req see
system.mem_ctrls.wrQLenPdf::20                  45873                       # What write queue length does an incoming req see
system.mem_ctrls.wrQLenPdf::21                  45471                       # What write queue length does an incoming req see
system.mem_ctrls.wrQLenPdf::22                  45271                       # What write queue length does an incoming req see
system.mem_ctrls.wrQLenPdf::23                  45066                       # What write queue length does an incoming req see
system.mem_ctrls.wrQLenPdf::24                  44875                       # What write queue length does an incoming req see
system.mem_ctrls.wrQLenPdf::25                  44729                       # What write queue length does an incoming req see
system.mem_ctrls.wrQLenPdf::26                  44690                       # What write queue length does an incoming req see
system.mem_ctrls.wrQLenPdf::27                  44619                       # What write queue length does an incoming req see
system.mem_ctrls.wrQLenPdf::28                  44611                       # What write queue length does an incoming req see
system.mem_ctrls.wrQLenPdf::29                  44633                       # What write queue length does an incoming req see
system.mem_ctrls.wrQLenPdf::30                  44503                       # What write queue length does an incoming req see
system.mem_ctrls.wrQLenPdf::31                  44482                       # What write queue length does an incoming req see
system.mem_ctrls.wrQLenPdf::32                  44478                       # What write queue length does an incoming req see
system.mem_ctrls.wrQLenPdf::33                     71                       # What write queue length does an incoming req see
system.mem_ctrls.wrQLenPdf::34                      3                       # What write queue length does an incoming req see
system.mem_ctrls.wrQLenPdf::35                      0                       # What write queue length does an incoming req see
system.mem_ctrls.wrQLenPdf::36                      0                       # What write queue length does an incoming req see
system.mem_ctrls.wrQLenPdf::37                      0                       # What write queue length does an incoming req see
system.mem_ctrls.wrQLenPdf::38                      0                       # What write queue length does an incoming req see
system.mem_ctrls.wrQLenPdf::39                      0                       # What write queue length does an incoming req see
system.mem_ctrls.wrQLenPdf::40                      0                       # What write queue length does an incoming req see
system.mem_ctrls.wrQLenPdf::41                      0                       # What write queue length does an incoming req see
system.mem_ctrls.wrQLenPdf::42                      0                       # What write queue length does an incoming req see
system.mem_ctrls.wrQLenPdf::43                      0                       # What write queue length does an incoming req see
system.mem_ctrls.wrQLenPdf::44                      0                       # What write queue length does an incoming req see
system.mem_ctrls.wrQLenPdf::45                      0                       # What write queue length does an incoming req see
system.mem_ctrls.wrQLenPdf::46                      0                       # What write queue length does an incoming req see
system.mem_ctrls.wrQLenPdf::47                      0                       # What write queue length does an incoming req see
system.mem_ctrls.wrQLenPdf::48                      0                       # What write queue length does an incoming req see
system.mem_ctrls.wrQLenPdf::49                      0                       # What write queue length does an incoming req see
system.mem_ctrls.wrQLenPdf::50                      0                       # What write queue length does an incoming req see
system.mem_ctrls.wrQLenPdf::51                      0                       # What write queue length does an incoming req see
system.mem_ctrls.wrQLenPdf::52                      0                       # What write queue length does an incoming req see
system.mem_ctrls.wrQLenPdf::53                      0                       # What write queue length does an incoming req see
system.mem_ctrls.wrQLenPdf::54                      0                       # What write queue length does an incoming req see
system.mem_ctrls.wrQLenPdf::55                      0                       # What write queue length does an incoming req see
system.mem_ctrls.wrQLenPdf::56                      0                       # What write queue length does an incoming req see
system.mem_ctrls.wrQLenPdf::57                      0                       # What write queue length does an incoming req see
system.mem_ctrls.wrQLenPdf::58                      0                       # What write queue length does an incoming req see
system.mem_ctrls.wrQLenPdf::59                      0                       # What write queue length does an incoming req see
system.mem_ctrls.wrQLenPdf::60                      0                       # What write queue length does an incoming req see
system.mem_ctrls.wrQLenPdf::61                      0                       # What write queue length does an incoming req see
system.mem_ctrls.wrQLenPdf::62                      0                       # What write queue length does an incoming req see
system.mem_ctrls.wrQLenPdf::63                      0                       # What write queue length does an incoming req see
system.mem_ctrls.bytesPerActivate::samples       952142                       # Bytes accessed per row activation
system.mem_ctrls.bytesPerActivate::mean    162.483058                       # Bytes accessed per row activation
system.mem_ctrls.bytesPerActivate::gmean   108.556162                       # Bytes accessed per row activation
system.mem_ctrls.bytesPerActivate::stdev   206.778494                       # Bytes accessed per row activation
system.mem_ctrls.bytesPerActivate::0-127       572535     60.13%     60.13% # Bytes accessed per row activation
system.mem_ctrls.bytesPerActivate::128-255       201821     21.20%     81.33% # Bytes accessed per row activation
system.mem_ctrls.bytesPerActivate::256-383       100622     10.57%     91.90% # Bytes accessed per row activation
system.mem_ctrls.bytesPerActivate::384-511        15304      1.61%     93.50% # Bytes accessed per row activation
system.mem_ctrls.bytesPerActivate::512-639        10316      1.08%     94.59% # Bytes accessed per row activation
system.mem_ctrls.bytesPerActivate::640-767         8005      0.84%     95.43% # Bytes accessed per row activation
system.mem_ctrls.bytesPerActivate::768-895         7275      0.76%     96.19% # Bytes accessed per row activation
system.mem_ctrls.bytesPerActivate::896-1023         5816      0.61%     96.80% # Bytes accessed per row activation
system.mem_ctrls.bytesPerActivate::1024-1151        30448      3.20%    100.00% # Bytes accessed per row activation
system.mem_ctrls.bytesPerActivate::total       952142                       # Bytes accessed per row activation
system.mem_ctrls.rdPerTurnAround::samples        44476                       # Reads before turning the bus around for writes
system.mem_ctrls.rdPerTurnAround::mean      37.242355                       # Reads before turning the bus around for writes
system.mem_ctrls.rdPerTurnAround::stdev     38.686691                       # Reads before turning the bus around for writes
system.mem_ctrls.rdPerTurnAround::0-127         44037     99.01%     99.01% # Reads before turning the bus around for writes
system.mem_ctrls.rdPerTurnAround::128-255          362      0.81%     99.83% # Reads before turning the bus around for writes
system.mem_ctrls.rdPerTurnAround::256-383           43      0.10%     99.92% # Reads before turning the bus around for writes
system.mem_ctrls.rdPerTurnAround::384-511           13      0.03%     99.95% # Reads before turning the bus around for writes
system.mem_ctrls.rdPerTurnAround::512-639            5      0.01%     99.96% # Reads before turning the bus around for writes
system.mem_ctrls.rdPerTurnAround::640-767            3      0.01%     99.97% # Reads before turning the bus around for writes
system.mem_ctrls.rdPerTurnAround::768-895            3      0.01%     99.98% # Reads before turning the bus around for writes
system.mem_ctrls.rdPerTurnAround::1280-1407            1      0.00%     99.98% # Reads before turning the bus around for writes
system.mem_ctrls.rdPerTurnAround::1536-1663            1      0.00%     99.98% # Reads before turning the bus around for writes
system.mem_ctrls.rdPerTurnAround::1664-1791            1      0.00%     99.98% # Reads before turning the bus around for writes
system.mem_ctrls.rdPerTurnAround::1792-1919            1      0.00%     99.99% # Reads before turning the bus around for writes
system.mem_ctrls.rdPerTurnAround::1920-2047            1      0.00%     99.99% # Reads before turning the bus around for writes
system.mem_ctrls.rdPerTurnAround::2048-2175            5      0.01%    100.00% # Reads before turning the bus around for writes
system.mem_ctrls.rdPerTurnAround::total         44476                       # Reads before turning the bus around for writes
system.mem_ctrls.wrPerTurnAround::samples        44476                       # Writes before turning the bus around for reads
system.mem_ctrls.wrPerTurnAround::mean      17.108373                       # Writes before turning the bus around for reads
system.mem_ctrls.wrPerTurnAround::gmean     17.077621                       # Writes before turning the bus around for reads
system.mem_ctrls.wrPerTurnAround::stdev      1.025209                       # Writes before turning the bus around for reads
system.mem_ctrls.wrPerTurnAround::16            19832     44.59%     44.59% # Writes before turning the bus around for reads
system.mem_ctrls.wrPerTurnAround::17             1010      2.27%     46.86% # Writes before turning the bus around for reads
system.mem_ctrls.wrPerTurnAround::18            22883     51.45%     98.31% # Writes before turning the bus around for reads
system.mem_ctrls.wrPerTurnAround::19              564      1.27%     99.58% # Writes before turning the bus around for reads
system.mem_ctrls.wrPerTurnAround::20              129      0.29%     99.87% # Writes before turning the bus around for reads
system.mem_ctrls.wrPerTurnAround::21               40      0.09%     99.96% # Writes before turning the bus around for reads
system.mem_ctrls.wrPerTurnAround::22               15      0.03%     99.99% # Writes before turning the bus around for reads
system.mem_ctrls.wrPerTurnAround::23                2      0.00%    100.00% # Writes before turning the bus around for reads
system.mem_ctrls.wrPerTurnAround::24                1      0.00%    100.00% # Writes before turning the bus around for reads
system.mem_ctrls.wrPerTurnAround::total         44476                       # Writes before turning the bus around for reads
system.mem_ctrls.totQLat                  12946476245                       # Total ticks spent queuing
system.mem_ctrls.totMemAccLat             44003638745                       # Total ticks spent from burst creation until serviced by the DRAM
system.mem_ctrls.totBusLat                 8281910000                       # Total ticks spent in databus transfers
system.mem_ctrls.avgQLat                      7816.12                       # Average queueing delay per DRAM burst
system.mem_ctrls.avgBusLat                    5000.00                       # Average bus latency per DRAM burst
system.mem_ctrls.avgMemAccLat                26566.12                       # Average memory access latency per DRAM burst
system.mem_ctrls.avgRdBW                        44.70                       # Average DRAM read bandwidth in MiByte/s
system.mem_ctrls.avgWrBW                        20.53                       # Average achieved write bandwidth in MiByte/s
system.mem_ctrls.avgRdBWSys                     44.72                       # Average system read bandwidth in MiByte/s
system.mem_ctrls.avgWrBWSys                     20.53                       # Average system write bandwidth in MiByte/s
system.mem_ctrls.peakBW                      12800.00                       # Theoretical peak bandwidth in MiByte/s
system.mem_ctrls.busUtil                         0.51                       # Data bus utilization in percentage
system.mem_ctrls.busUtilRead                     0.35                       # Data bus utilization in percentage for reads
system.mem_ctrls.busUtilWrite                    0.16                       # Data bus utilization in percentage for writes
system.mem_ctrls.avgRdQLen                       1.00                       # Average read queue length when enqueuing
system.mem_ctrls.avgWrQLen                      24.64                       # Average write queue length when enqueuing
system.mem_ctrls.readRowHits                  1295148                       # Number of row buffer hits during reads
system.mem_ctrls.writeRowHits                  170001                       # Number of row buffer hits during writes
system.mem_ctrls.readRowHitRate                 78.19                       # Row buffer hit rate for reads
system.mem_ctrls.writeRowHitRate                22.34                       # Row buffer hit rate for writes
system.mem_ctrls.avgGap                     980779.18                       # Average gap between requests
system.mem_ctrls.pageHitRate                    60.61                       # Row buffer hit rate, read and write combined
system.mem_ctrls_0.actEnergy               3693816000                       # Energy for activate commands per rank (pJ)
system.mem_ctrls_0.preEnergy               2015475000                       # Energy for precharge commands per rank (pJ)
system.mem_ctrls_0.readEnergy              6757397400                       # Energy for read commands per rank (pJ)
system.mem_ctrls_0.writeEnergy             2520616320                       # Energy for write commands per rank (pJ)
system.mem_ctrls_0.refreshEnergy         155751585600                       # Energy for refresh commands per rank (pJ)
system.mem_ctrls_0.actBackEnergy         359226070605                       # Energy for active background per rank (pJ)
system.mem_ctrls_0.preBackEnergy         1115659722750                       # Energy for precharge background per rank (pJ)
system.mem_ctrls_0.totalEnergy           1645624683675                       # Total energy per rank (pJ)
system.mem_ctrls_0.averagePower            690.100153                       # Core power per rank (mW)
system.mem_ctrls_0.memoryStateTime::IDLE 1850547959750                       # Time in different power states
system.mem_ctrls_0.memoryStateTime::REF   79198860000                       # Time in different power states
system.mem_ctrls_0.memoryStateTime::PRE_PDN            0                       # Time in different power states
system.mem_ctrls_0.memoryStateTime::ACT  442034795750                       # Time in different power states
system.mem_ctrls_0.memoryStateTime::ACT_PDN            0                       # Time in different power states
system.mem_ctrls_1.actEnergy               3656688840                       # Energy for activate commands per rank (pJ)
system.mem_ctrls_1.preEnergy               1995217125                       # Energy for precharge commands per rank (pJ)
system.mem_ctrls_1.readEnergy              6682057200                       # Energy for read commands per rank (pJ)
system.mem_ctrls_1.writeEnergy             2494080720                       # Energy for write commands per rank (pJ)
system.mem_ctrls_1.refreshEnergy         155751585600                       # Energy for refresh commands per rank (pJ)
system.mem_ctrls_1.actBackEnergy         358444097865                       # Energy for active background per rank (pJ)
system.mem_ctrls_1.preBackEnergy         1116345663750                       # Energy for precharge background per rank (pJ)
system.mem_ctrls_1.totalEnergy           1645369391100                       # Total energy per rank (pJ)
system.mem_ctrls_1.averagePower            689.993095                       # Core power per rank (mW)
system.mem_ctrls_1.memoryStateTime::IDLE 1851378020750                       # Time in different power states
system.mem_ctrls_1.memoryStateTime::REF   79198860000                       # Time in different power states
system.mem_ctrls_1.memoryStateTime::PRE_PDN            0                       # Time in different power states
system.mem_ctrls_1.memoryStateTime::ACT  441202401250                       # Time in different power states
system.mem_ctrls_1.memoryStateTime::ACT_PDN            0                       # Time in different power states
system.cpu_voltage_domain.voltage                   1                       # Voltage in Volts
system.cpu_clk_domain.clock                       500                       # Clock period in ticks
system.cpu0.apic_clk_domain.clock                8000                       # Clock period in ticks
system.cpu0.numCycles                      4744155772                       # number of cpu cycles simulated
system.cpu0.numWorkItemsStarted                     0                       # number of work items this cpu started
system.cpu0.numWorkItemsCompleted                   0                       # number of work items this cpu completed
system.cpu0.kern.inst.arm                           0                       # number of arm instructions executed
system.cpu0.kern.inst.quiesce                       0                       # number of quiesce instructions executed
system.cpu0.committedInsts                    3861332                       # Number of instructions committed
system.cpu0.committedOps                      7997063                       # Number of ops (including micro ops) committed
system.cpu0.num_int_alu_accesses              7777232                       # Number of integer alu accesses
system.cpu0.num_fp_alu_accesses                   372                       # Number of float alu accesses
system.cpu0.num_func_calls                     186926                       # number of times a function call or return occured
system.cpu0.num_conditional_control_insts       617230                       # number of instructions that are conditional controls
system.cpu0.num_int_insts                     7777232                       # number of integer instructions
system.cpu0.num_fp_insts                          372                       # number of float instructions
system.cpu0.num_int_register_reads           15169516                       # number of times the integer registers were read
system.cpu0.num_int_register_writes           6407066                       # number of times the integer registers were written
system.cpu0.num_fp_register_reads                 596                       # number of times the floating registers were read
system.cpu0.num_fp_register_writes                261                       # number of times the floating registers were written
system.cpu0.num_cc_register_reads             4794032                       # number of times the CC registers were read
system.cpu0.num_cc_register_writes            2953513                       # number of times the CC registers were written
system.cpu0.num_mem_refs                      1632511                       # number of memory refs
system.cpu0.num_load_insts                    1009945                       # Number of load instructions
system.cpu0.num_store_insts                    622566                       # Number of store instructions
system.cpu0.num_idle_cycles              4723421818.340376                       # Number of idle cycles
system.cpu0.num_busy_cycles              20733953.659624                       # Number of busy cycles
system.cpu0.not_idle_fraction                0.004370                       # Percentage of non-idle cycles
system.cpu0.idle_fraction                    0.995630                       # Percentage of idle cycles
system.cpu0.Branches                           868111                       # Number of branches fetched
system.cpu0.op_class::No_OpClass                78996      0.99%      0.99% # Class of executed instruction
system.cpu0.op_class::IntAlu                  6251715     78.17%     79.16% # Class of executed instruction
system.cpu0.op_class::IntMult                    8868      0.11%     79.27% # Class of executed instruction
system.cpu0.op_class::IntDiv                    24814      0.31%     79.58% # Class of executed instruction
system.cpu0.op_class::FloatAdd                    244      0.00%     79.59% # Class of executed instruction
system.cpu0.op_class::FloatCmp                      0      0.00%     79.59% # Class of executed instruction
system.cpu0.op_class::FloatCvt                      0      0.00%     79.59% # Class of executed instruction
system.cpu0.op_class::FloatMult                     0      0.00%     79.59% # Class of executed instruction
system.cpu0.op_class::FloatDiv                      0      0.00%     79.59% # Class of executed instruction
system.cpu0.op_class::FloatSqrt                     0      0.00%     79.59% # Class of executed instruction
system.cpu0.op_class::SimdAdd                       0      0.00%     79.59% # Class of executed instruction
system.cpu0.op_class::SimdAddAcc                    0      0.00%     79.59% # Class of executed instruction
system.cpu0.op_class::SimdAlu                       0      0.00%     79.59% # Class of executed instruction
system.cpu0.op_class::SimdCmp                       0      0.00%     79.59% # Class of executed instruction
system.cpu0.op_class::SimdCvt                       0      0.00%     79.59% # Class of executed instruction
system.cpu0.op_class::SimdMisc                      0      0.00%     79.59% # Class of executed instruction
system.cpu0.op_class::SimdMult                      0      0.00%     79.59% # Class of executed instruction
system.cpu0.op_class::SimdMultAcc                   0      0.00%     79.59% # Class of executed instruction
system.cpu0.op_class::SimdShift                     0      0.00%     79.59% # Class of executed instruction
system.cpu0.op_class::SimdShiftAcc                  0      0.00%     79.59% # Class of executed instruction
system.cpu0.op_class::SimdSqrt                      0      0.00%     79.59% # Class of executed instruction
system.cpu0.op_class::SimdFloatAdd                  0      0.00%     79.59% # Class of executed instruction
system.cpu0.op_class::SimdFloatAlu                  0      0.00%     79.59% # Class of executed instruction
system.cpu0.op_class::SimdFloatCmp                  0      0.00%     79.59% # Class of executed instruction
system.cpu0.op_class::SimdFloatCvt                  0      0.00%     79.59% # Class of executed instruction
system.cpu0.op_class::SimdFloatDiv                  0      0.00%     79.59% # Class of executed instruction
system.cpu0.op_class::SimdFloatMisc                 0      0.00%     79.59% # Class of executed instruction
system.cpu0.op_class::SimdFloatMult                 0      0.00%     79.59% # Class of executed instruction
system.cpu0.op_class::SimdFloatMultAcc              0      0.00%     79.59% # Class of executed instruction
system.cpu0.op_class::SimdFloatSqrt                 0      0.00%     79.59% # Class of executed instruction
system.cpu0.op_class::MemRead                 1009945     12.63%     92.22% # Class of executed instruction
system.cpu0.op_class::MemWrite                 622566      7.78%    100.00% # Class of executed instruction
system.cpu0.op_class::IprAccess                     0      0.00%    100.00% # Class of executed instruction
system.cpu0.op_class::InstPrefetch                  0      0.00%    100.00% # Class of executed instruction
system.cpu0.op_class::total                   7997148                       # Class of executed instruction
system.cpu1.apic_clk_domain.clock                8000                       # Clock period in ticks
system.cpu1.numCycles                      4742005321                       # number of cpu cycles simulated
system.cpu1.numWorkItemsStarted                     0                       # number of work items this cpu started
system.cpu1.numWorkItemsCompleted                   0                       # number of work items this cpu completed
system.cpu1.kern.inst.arm                           0                       # number of arm instructions executed
system.cpu1.kern.inst.quiesce                       0                       # number of quiesce instructions executed
system.cpu1.committedInsts                 1297721652                       # Number of instructions committed
system.cpu1.committedOps                   2349174263                       # Number of ops (including micro ops) committed
system.cpu1.num_int_alu_accesses           1507195526                       # Number of integer alu accesses
system.cpu1.num_fp_alu_accesses            1130300518                       # Number of float alu accesses
system.cpu1.num_func_calls                     802443                       # number of times a function call or return occured
system.cpu1.num_conditional_control_insts    160943450                       # number of instructions that are conditional controls
system.cpu1.num_int_insts                  1507195526                       # number of integer instructions
system.cpu1.num_fp_insts                   1130300518                       # number of float instructions
system.cpu1.num_int_register_reads         2940993447                       # number of times the integer registers were read
system.cpu1.num_int_register_writes        1034178277                       # number of times the integer registers were written
system.cpu1.num_fp_register_reads          1382500686                       # number of times the floating registers were read
system.cpu1.num_fp_register_writes         1075410587                       # number of times the floating registers were written
system.cpu1.num_cc_register_reads           939426206                       # number of times the CC registers were read
system.cpu1.num_cc_register_writes          528246370                       # number of times the CC registers were written
system.cpu1.num_mem_refs                    388396400                       # number of memory refs
system.cpu1.num_load_insts                  349997389                       # Number of load instructions
system.cpu1.num_store_insts                  38399011                       # Number of store instructions
system.cpu1.num_idle_cycles              27318054.121259                       # Number of idle cycles
system.cpu1.num_busy_cycles              4714687266.878741                       # Number of busy cycles
system.cpu1.not_idle_fraction                0.994239                       # Percentage of non-idle cycles
system.cpu1.idle_fraction                    0.005761                       # Percentage of idle cycles
system.cpu1.Branches                        166338264                       # Number of branches fetched
system.cpu1.op_class::No_OpClass              3904277      0.17%      0.17% # Class of executed instruction
system.cpu1.op_class::IntAlu               1229176009     52.32%     52.49% # Class of executed instruction
system.cpu1.op_class::IntMult                 4268539      0.18%     52.67% # Class of executed instruction
system.cpu1.op_class::IntDiv                      931      0.00%     52.67% # Class of executed instruction
system.cpu1.op_class::FloatAdd              723444434     30.80%     83.47% # Class of executed instruction
system.cpu1.op_class::FloatCmp                      0      0.00%     83.47% # Class of executed instruction
system.cpu1.op_class::FloatCvt                      0      0.00%     83.47% # Class of executed instruction
system.cpu1.op_class::FloatMult                     0      0.00%     83.47% # Class of executed instruction
system.cpu1.op_class::FloatDiv                      0      0.00%     83.47% # Class of executed instruction
system.cpu1.op_class::FloatSqrt                     0      0.00%     83.47% # Class of executed instruction
system.cpu1.op_class::SimdAdd                       0      0.00%     83.47% # Class of executed instruction
system.cpu1.op_class::SimdAddAcc                    0      0.00%     83.47% # Class of executed instruction
system.cpu1.op_class::SimdAlu                       0      0.00%     83.47% # Class of executed instruction
system.cpu1.op_class::SimdCmp                       0      0.00%     83.47% # Class of executed instruction
system.cpu1.op_class::SimdCvt                       0      0.00%     83.47% # Class of executed instruction
system.cpu1.op_class::SimdMisc                      0      0.00%     83.47% # Class of executed instruction
system.cpu1.op_class::SimdMult                      0      0.00%     83.47% # Class of executed instruction
system.cpu1.op_class::SimdMultAcc                   0      0.00%     83.47% # Class of executed instruction
system.cpu1.op_class::SimdShift                     0      0.00%     83.47% # Class of executed instruction
system.cpu1.op_class::SimdShiftAcc                  0      0.00%     83.47% # Class of executed instruction
system.cpu1.op_class::SimdSqrt                      0      0.00%     83.47% # Class of executed instruction
system.cpu1.op_class::SimdFloatAdd                  0      0.00%     83.47% # Class of executed instruction
system.cpu1.op_class::SimdFloatAlu                  0      0.00%     83.47% # Class of executed instruction
system.cpu1.op_class::SimdFloatCmp                  0      0.00%     83.47% # Class of executed instruction
system.cpu1.op_class::SimdFloatCvt                  0      0.00%     83.47% # Class of executed instruction
system.cpu1.op_class::SimdFloatDiv                  0      0.00%     83.47% # Class of executed instruction
system.cpu1.op_class::SimdFloatMisc                 0      0.00%     83.47% # Class of executed instruction
system.cpu1.op_class::SimdFloatMult                 0      0.00%     83.47% # Class of executed instruction
system.cpu1.op_class::SimdFloatMultAcc              0      0.00%     83.47% # Class of executed instruction
system.cpu1.op_class::SimdFloatSqrt                 0      0.00%     83.47% # Class of executed instruction
system.cpu1.op_class::MemRead               349997389     14.90%     98.37% # Class of executed instruction
system.cpu1.op_class::MemWrite               38399011      1.63%    100.00% # Class of executed instruction
system.cpu1.op_class::IprAccess                     0      0.00%    100.00% # Class of executed instruction
system.cpu1.op_class::InstPrefetch                  0      0.00%    100.00% # Class of executed instruction
system.cpu1.op_class::total                2349190590                       # Class of executed instruction
system.cpu2.apic_clk_domain.clock                8000                       # Clock period in ticks
system.cpu2.numCycles                      4741373334                       # number of cpu cycles simulated
system.cpu2.numWorkItemsStarted                     0                       # number of work items this cpu started
system.cpu2.numWorkItemsCompleted                   0                       # number of work items this cpu completed
system.cpu2.kern.inst.arm                           0                       # number of arm instructions executed
system.cpu2.kern.inst.quiesce                       0                       # number of quiesce instructions executed
system.cpu2.committedInsts                    4672063                       # Number of instructions committed
system.cpu2.committedOps                      9406744                       # Number of ops (including micro ops) committed
system.cpu2.num_int_alu_accesses              9236902                       # Number of integer alu accesses
system.cpu2.num_fp_alu_accesses                  1778                       # Number of float alu accesses
system.cpu2.num_func_calls                     243708                       # number of times a function call or return occured
system.cpu2.num_conditional_control_insts       806004                       # number of instructions that are conditional controls
system.cpu2.num_int_insts                     9236902                       # number of integer instructions
system.cpu2.num_fp_insts                         1778                       # number of float instructions
system.cpu2.num_int_register_reads           18289667                       # number of times the integer registers were read
system.cpu2.num_int_register_writes           7521736                       # number of times the integer registers were written
system.cpu2.num_fp_register_reads                2988                       # number of times the floating registers were read
system.cpu2.num_fp_register_writes               1416                       # number of times the floating registers were written
system.cpu2.num_cc_register_reads             6030045                       # number of times the CC registers were read
system.cpu2.num_cc_register_writes            3203687                       # number of times the CC registers were written
system.cpu2.num_mem_refs                      2096262                       # number of memory refs
system.cpu2.num_load_insts                    1358796                       # Number of load instructions
system.cpu2.num_store_insts                    737466                       # Number of store instructions
system.cpu2.num_idle_cycles              4718747475.176032                       # Number of idle cycles
system.cpu2.num_busy_cycles              22625858.823968                       # Number of busy cycles
system.cpu2.not_idle_fraction                0.004772                       # Percentage of non-idle cycles
system.cpu2.idle_fraction                    0.995228                       # Percentage of idle cycles
system.cpu2.Branches                          1095005                       # Number of branches fetched
system.cpu2.op_class::No_OpClass                73855      0.79%      0.79% # Class of executed instruction
system.cpu2.op_class::IntAlu                  7202148     76.56%     77.35% # Class of executed instruction
system.cpu2.op_class::IntMult                    8420      0.09%     77.44% # Class of executed instruction
system.cpu2.op_class::IntDiv                    24803      0.26%     77.70% # Class of executed instruction
system.cpu2.op_class::FloatAdd                   1344      0.01%     77.72% # Class of executed instruction
system.cpu2.op_class::FloatCmp                      0      0.00%     77.72% # Class of executed instruction
system.cpu2.op_class::FloatCvt                      0      0.00%     77.72% # Class of executed instruction
system.cpu2.op_class::FloatMult                     0      0.00%     77.72% # Class of executed instruction
system.cpu2.op_class::FloatDiv                      0      0.00%     77.72% # Class of executed instruction
system.cpu2.op_class::FloatSqrt                     0      0.00%     77.72% # Class of executed instruction
system.cpu2.op_class::SimdAdd                       0      0.00%     77.72% # Class of executed instruction
system.cpu2.op_class::SimdAddAcc                    0      0.00%     77.72% # Class of executed instruction
system.cpu2.op_class::SimdAlu                       0      0.00%     77.72% # Class of executed instruction
system.cpu2.op_class::SimdCmp                       0      0.00%     77.72% # Class of executed instruction
system.cpu2.op_class::SimdCvt                       0      0.00%     77.72% # Class of executed instruction
system.cpu2.op_class::SimdMisc                      0      0.00%     77.72% # Class of executed instruction
system.cpu2.op_class::SimdMult                      0      0.00%     77.72% # Class of executed instruction
system.cpu2.op_class::SimdMultAcc                   0      0.00%     77.72% # Class of executed instruction
system.cpu2.op_class::SimdShift                     0      0.00%     77.72% # Class of executed instruction
system.cpu2.op_class::SimdShiftAcc                  0      0.00%     77.72% # Class of executed instruction
system.cpu2.op_class::SimdSqrt                      0      0.00%     77.72% # Class of executed instruction
system.cpu2.op_class::SimdFloatAdd                  0      0.00%     77.72% # Class of executed instruction
system.cpu2.op_class::SimdFloatAlu                  0      0.00%     77.72% # Class of executed instruction
system.cpu2.op_class::SimdFloatCmp                  0      0.00%     77.72% # Class of executed instruction
system.cpu2.op_class::SimdFloatCvt                  0      0.00%     77.72% # Class of executed instruction
system.cpu2.op_class::SimdFloatDiv                  0      0.00%     77.72% # Class of executed instruction
system.cpu2.op_class::SimdFloatMisc                 0      0.00%     77.72% # Class of executed instruction
system.cpu2.op_class::SimdFloatMult                 0      0.00%     77.72% # Class of executed instruction
system.cpu2.op_class::SimdFloatMultAcc              0      0.00%     77.72% # Class of executed instruction
system.cpu2.op_class::SimdFloatSqrt                 0      0.00%     77.72% # Class of executed instruction
system.cpu2.op_class::MemRead                 1358796     14.44%     92.16% # Class of executed instruction
system.cpu2.op_class::MemWrite                 737466      7.84%    100.00% # Class of executed instruction
system.cpu2.op_class::IprAccess                     0      0.00%    100.00% # Class of executed instruction
system.cpu2.op_class::InstPrefetch                  0      0.00%    100.00% # Class of executed instruction
system.cpu2.op_class::total                   9406832                       # Class of executed instruction
system.cpu3.apic_clk_domain.clock                8000                       # Clock period in ticks
system.cpu3.numCycles                      4749509467                       # number of cpu cycles simulated
system.cpu3.numWorkItemsStarted                     0                       # number of work items this cpu started
system.cpu3.numWorkItemsCompleted                   0                       # number of work items this cpu completed
system.cpu3.kern.inst.arm                           0                       # number of arm instructions executed
system.cpu3.kern.inst.quiesce                       0                       # number of quiesce instructions executed
system.cpu3.committedInsts                    1876808                       # Number of instructions committed
system.cpu3.committedOps                      4014107                       # Number of ops (including micro ops) committed
system.cpu3.num_int_alu_accesses              3932080                       # Number of integer alu accesses
system.cpu3.num_fp_alu_accesses                    39                       # Number of float alu accesses
system.cpu3.num_func_calls                     106960                       # number of times a function call or return occured
system.cpu3.num_conditional_control_insts       309416                       # number of instructions that are conditional controls
system.cpu3.num_int_insts                     3932080                       # number of integer instructions
system.cpu3.num_fp_insts                           39                       # number of float instructions
system.cpu3.num_int_register_reads            7861730                       # number of times the integer registers were read
system.cpu3.num_int_register_writes           3245653                       # number of times the integer registers were written
system.cpu3.num_fp_register_reads                  63                       # number of times the floating registers were read
system.cpu3.num_fp_register_writes                 31                       # number of times the floating registers were written
system.cpu3.num_cc_register_reads             2389512                       # number of times the CC registers were read
system.cpu3.num_cc_register_writes            1227308                       # number of times the CC registers were written
system.cpu3.num_mem_refs                       913398                       # number of memory refs
system.cpu3.num_load_insts                     568452                       # Number of load instructions
system.cpu3.num_store_insts                    344946                       # Number of store instructions
system.cpu3.num_idle_cycles              4741365288.124430                       # Number of idle cycles
system.cpu3.num_busy_cycles              8144178.875570                       # Number of busy cycles
system.cpu3.not_idle_fraction                0.001715                       # Percentage of non-idle cycles
system.cpu3.idle_fraction                    0.998285                       # Percentage of idle cycles
system.cpu3.Branches                           450796                       # Number of branches fetched
system.cpu3.op_class::No_OpClass                67332      1.68%      1.68% # Class of executed instruction
system.cpu3.op_class::IntAlu                  3002230     74.79%     76.47% # Class of executed instruction
system.cpu3.op_class::IntMult                    7417      0.18%     76.65% # Class of executed instruction
system.cpu3.op_class::IntDiv                    23722      0.59%     77.24% # Class of executed instruction
system.cpu3.op_class::FloatAdd                     30      0.00%     77.25% # Class of executed instruction
system.cpu3.op_class::FloatCmp                      0      0.00%     77.25% # Class of executed instruction
system.cpu3.op_class::FloatCvt                      0      0.00%     77.25% # Class of executed instruction
system.cpu3.op_class::FloatMult                     0      0.00%     77.25% # Class of executed instruction
system.cpu3.op_class::FloatDiv                      0      0.00%     77.25% # Class of executed instruction
system.cpu3.op_class::FloatSqrt                     0      0.00%     77.25% # Class of executed instruction
system.cpu3.op_class::SimdAdd                       0      0.00%     77.25% # Class of executed instruction
system.cpu3.op_class::SimdAddAcc                    0      0.00%     77.25% # Class of executed instruction
system.cpu3.op_class::SimdAlu                       0      0.00%     77.25% # Class of executed instruction
system.cpu3.op_class::SimdCmp                       0      0.00%     77.25% # Class of executed instruction
system.cpu3.op_class::SimdCvt                       0      0.00%     77.25% # Class of executed instruction
system.cpu3.op_class::SimdMisc                      0      0.00%     77.25% # Class of executed instruction
system.cpu3.op_class::SimdMult                      0      0.00%     77.25% # Class of executed instruction
system.cpu3.op_class::SimdMultAcc                   0      0.00%     77.25% # Class of executed instruction
system.cpu3.op_class::SimdShift                     0      0.00%     77.25% # Class of executed instruction
system.cpu3.op_class::SimdShiftAcc                  0      0.00%     77.25% # Class of executed instruction
system.cpu3.op_class::SimdSqrt                      0      0.00%     77.25% # Class of executed instruction
system.cpu3.op_class::SimdFloatAdd                  0      0.00%     77.25% # Class of executed instruction
system.cpu3.op_class::SimdFloatAlu                  0      0.00%     77.25% # Class of executed instruction
system.cpu3.op_class::SimdFloatCmp                  0      0.00%     77.25% # Class of executed instruction
system.cpu3.op_class::SimdFloatCvt                  0      0.00%     77.25% # Class of executed instruction
system.cpu3.op_class::SimdFloatDiv                  0      0.00%     77.25% # Class of executed instruction
system.cpu3.op_class::SimdFloatMisc                 0      0.00%     77.25% # Class of executed instruction
system.cpu3.op_class::SimdFloatMult                 0      0.00%     77.25% # Class of executed instruction
system.cpu3.op_class::SimdFloatMultAcc              0      0.00%     77.25% # Class of executed instruction
system.cpu3.op_class::SimdFloatSqrt                 0      0.00%     77.25% # Class of executed instruction
system.cpu3.op_class::MemRead                  568452     14.16%     91.41% # Class of executed instruction
system.cpu3.op_class::MemWrite                 344946      8.59%    100.00% # Class of executed instruction
system.cpu3.op_class::IprAccess                     0      0.00%    100.00% # Class of executed instruction
system.cpu3.op_class::InstPrefetch                  0      0.00%    100.00% # Class of executed instruction
system.cpu3.op_class::total                   4014129                       # Class of executed instruction
system.iobus.trans_dist::ReadReq                  406                       # Transaction distribution
system.iobus.trans_dist::ReadResp                 406                       # Transaction distribution
system.iobus.trans_dist::WriteReq                3085                       # Transaction distribution
system.iobus.trans_dist::WriteResp               3085                       # Transaction distribution
system.iobus.trans_dist::MessageReq                56                       # Transaction distribution
system.iobus.trans_dist::MessageResp               56                       # Transaction distribution
system.iobus.pkt_count_system.pc.south_bridge.io_apic.int_master::system.ruby.l1_cntrl0.sequencer.pio-slave-port           22                       # Packet count per connected master and slave (bytes)
system.iobus.pkt_count_system.pc.south_bridge.io_apic.int_master::system.ruby.l1_cntrl1.sequencer.pio-slave-port           22                       # Packet count per connected master and slave (bytes)
system.iobus.pkt_count_system.pc.south_bridge.io_apic.int_master::system.ruby.l1_cntrl2.sequencer.pio-slave-port           22                       # Packet count per connected master and slave (bytes)
system.iobus.pkt_count_system.pc.south_bridge.io_apic.int_master::system.ruby.l1_cntrl3.sequencer.pio-slave-port           24                       # Packet count per connected master and slave (bytes)
system.iobus.pkt_count_system.pc.south_bridge.io_apic.int_master::total           90                       # Packet count per connected master and slave (bytes)
system.iobus.pkt_count_system.ruby.l1_cntrl0.sequencer.mem-master-port::system.pc.south_bridge.ide.pio          460                       # Packet count per connected master and slave (bytes)
system.iobus.pkt_count_system.ruby.l1_cntrl0.sequencer.mem-master-port::system.pc.south_bridge.io_apic.pio            8                       # Packet count per connected master and slave (bytes)
system.iobus.pkt_count_system.ruby.l1_cntrl0.sequencer.mem-master-port::system.ruby.l1_cntrl0.sequencer.pio-slave-port         1240                       # Packet count per connected master and slave (bytes)
system.iobus.pkt_count_system.ruby.l1_cntrl0.sequencer.mem-master-port::system.ruby.l1_cntrl1.sequencer.pio-slave-port            6                       # Packet count per connected master and slave (bytes)
system.iobus.pkt_count_system.ruby.l1_cntrl0.sequencer.mem-master-port::system.ruby.l1_cntrl3.sequencer.pio-slave-port            2                       # Packet count per connected master and slave (bytes)
system.iobus.pkt_count_system.ruby.l1_cntrl0.sequencer.mem-master-port::total         1716                       # Packet count per connected master and slave (bytes)
system.iobus.pkt_count_system.ruby.l1_cntrl1.sequencer.mem-master-port::system.pc.south_bridge.ide.pio          596                       # Packet count per connected master and slave (bytes)
system.iobus.pkt_count_system.ruby.l1_cntrl1.sequencer.mem-master-port::system.pc.south_bridge.io_apic.pio            8                       # Packet count per connected master and slave (bytes)
system.iobus.pkt_count_system.ruby.l1_cntrl1.sequencer.mem-master-port::system.ruby.l1_cntrl0.sequencer.pio-slave-port            4                       # Packet count per connected master and slave (bytes)
system.iobus.pkt_count_system.ruby.l1_cntrl1.sequencer.mem-master-port::system.ruby.l1_cntrl1.sequencer.pio-slave-port         1234                       # Packet count per connected master and slave (bytes)
system.iobus.pkt_count_system.ruby.l1_cntrl1.sequencer.mem-master-port::system.ruby.l1_cntrl2.sequencer.pio-slave-port            2                       # Packet count per connected master and slave (bytes)
system.iobus.pkt_count_system.ruby.l1_cntrl1.sequencer.mem-master-port::total         1844                       # Packet count per connected master and slave (bytes)
system.iobus.pkt_count_system.ruby.l1_cntrl2.sequencer.mem-master-port::system.pc.south_bridge.ide.pio          358                       # Packet count per connected master and slave (bytes)
system.iobus.pkt_count_system.ruby.l1_cntrl2.sequencer.mem-master-port::system.pc.south_bridge.io_apic.pio            6                       # Packet count per connected master and slave (bytes)
system.iobus.pkt_count_system.ruby.l1_cntrl2.sequencer.mem-master-port::system.pc.com_1.pio           22                       # Packet count per connected master and slave (bytes)
system.iobus.pkt_count_system.ruby.l1_cntrl2.sequencer.mem-master-port::system.ruby.l1_cntrl0.sequencer.pio-slave-port            2                       # Packet count per connected master and slave (bytes)
system.iobus.pkt_count_system.ruby.l1_cntrl2.sequencer.mem-master-port::system.ruby.l1_cntrl1.sequencer.pio-slave-port            2                       # Packet count per connected master and slave (bytes)
system.iobus.pkt_count_system.ruby.l1_cntrl2.sequencer.mem-master-port::system.ruby.l1_cntrl2.sequencer.pio-slave-port         1228                       # Packet count per connected master and slave (bytes)
system.iobus.pkt_count_system.ruby.l1_cntrl2.sequencer.mem-master-port::system.ruby.l1_cntrl3.sequencer.pio-slave-port            2                       # Packet count per connected master and slave (bytes)
system.iobus.pkt_count_system.ruby.l1_cntrl2.sequencer.mem-master-port::total         1620                       # Packet count per connected master and slave (bytes)
system.iobus.pkt_count_system.ruby.l1_cntrl3.sequencer.mem-master-port::system.pc.south_bridge.ide.pio          426                       # Packet count per connected master and slave (bytes)
system.iobus.pkt_count_system.ruby.l1_cntrl3.sequencer.mem-master-port::system.pc.south_bridge.io_apic.pio           14                       # Packet count per connected master and slave (bytes)
system.iobus.pkt_count_system.ruby.l1_cntrl3.sequencer.mem-master-port::system.pc.com_1.pio          162                       # Packet count per connected master and slave (bytes)
system.iobus.pkt_count_system.ruby.l1_cntrl3.sequencer.mem-master-port::system.ruby.l1_cntrl0.sequencer.pio-slave-port            2                       # Packet count per connected master and slave (bytes)
system.iobus.pkt_count_system.ruby.l1_cntrl3.sequencer.mem-master-port::system.ruby.l1_cntrl3.sequencer.pio-slave-port         1220                       # Packet count per connected master and slave (bytes)
system.iobus.pkt_count_system.ruby.l1_cntrl3.sequencer.mem-master-port::total         1824                       # Packet count per connected master and slave (bytes)
system.iobus.pkt_count::total                    7094                       # Packet count per connected master and slave (bytes)
system.iobus.pkt_size_system.pc.south_bridge.io_apic.int_master::system.ruby.l1_cntrl0.sequencer.pio-slave-port           44                       # Cumulative packet size per connected master and slave (bytes)
system.iobus.pkt_size_system.pc.south_bridge.io_apic.int_master::system.ruby.l1_cntrl1.sequencer.pio-slave-port           44                       # Cumulative packet size per connected master and slave (bytes)
system.iobus.pkt_size_system.pc.south_bridge.io_apic.int_master::system.ruby.l1_cntrl2.sequencer.pio-slave-port           44                       # Cumulative packet size per connected master and slave (bytes)
system.iobus.pkt_size_system.pc.south_bridge.io_apic.int_master::system.ruby.l1_cntrl3.sequencer.pio-slave-port           48                       # Cumulative packet size per connected master and slave (bytes)
system.iobus.pkt_size_system.pc.south_bridge.io_apic.int_master::total          180                       # Cumulative packet size per connected master and slave (bytes)
system.iobus.pkt_size_system.ruby.l1_cntrl0.sequencer.mem-master-port::system.pc.south_bridge.ide.pio          260                       # Cumulative packet size per connected master and slave (bytes)
system.iobus.pkt_size_system.ruby.l1_cntrl0.sequencer.mem-master-port::system.pc.south_bridge.io_apic.pio           16                       # Cumulative packet size per connected master and slave (bytes)
system.iobus.pkt_size_system.ruby.l1_cntrl0.sequencer.mem-master-port::system.ruby.l1_cntrl0.sequencer.pio-slave-port         2480                       # Cumulative packet size per connected master and slave (bytes)
system.iobus.pkt_size_system.ruby.l1_cntrl0.sequencer.mem-master-port::system.ruby.l1_cntrl1.sequencer.pio-slave-port           12                       # Cumulative packet size per connected master and slave (bytes)
system.iobus.pkt_size_system.ruby.l1_cntrl0.sequencer.mem-master-port::system.ruby.l1_cntrl3.sequencer.pio-slave-port            4                       # Cumulative packet size per connected master and slave (bytes)
system.iobus.pkt_size_system.ruby.l1_cntrl0.sequencer.mem-master-port::total         2772                       # Cumulative packet size per connected master and slave (bytes)
system.iobus.pkt_size_system.ruby.l1_cntrl1.sequencer.mem-master-port::system.pc.south_bridge.ide.pio          340                       # Cumulative packet size per connected master and slave (bytes)
system.iobus.pkt_size_system.ruby.l1_cntrl1.sequencer.mem-master-port::system.pc.south_bridge.io_apic.pio           16                       # Cumulative packet size per connected master and slave (bytes)
system.iobus.pkt_size_system.ruby.l1_cntrl1.sequencer.mem-master-port::system.ruby.l1_cntrl0.sequencer.pio-slave-port            8                       # Cumulative packet size per connected master and slave (bytes)
system.iobus.pkt_size_system.ruby.l1_cntrl1.sequencer.mem-master-port::system.ruby.l1_cntrl1.sequencer.pio-slave-port         2468                       # Cumulative packet size per connected master and slave (bytes)
system.iobus.pkt_size_system.ruby.l1_cntrl1.sequencer.mem-master-port::system.ruby.l1_cntrl2.sequencer.pio-slave-port            4                       # Cumulative packet size per connected master and slave (bytes)
system.iobus.pkt_size_system.ruby.l1_cntrl1.sequencer.mem-master-port::total         2836                       # Cumulative packet size per connected master and slave (bytes)
system.iobus.pkt_size_system.ruby.l1_cntrl2.sequencer.mem-master-port::system.pc.south_bridge.ide.pio          200                       # Cumulative packet size per connected master and slave (bytes)
system.iobus.pkt_size_system.ruby.l1_cntrl2.sequencer.mem-master-port::system.pc.south_bridge.io_apic.pio           12                       # Cumulative packet size per connected master and slave (bytes)
system.iobus.pkt_size_system.ruby.l1_cntrl2.sequencer.mem-master-port::system.pc.com_1.pio           11                       # Cumulative packet size per connected master and slave (bytes)
system.iobus.pkt_size_system.ruby.l1_cntrl2.sequencer.mem-master-port::system.ruby.l1_cntrl0.sequencer.pio-slave-port            4                       # Cumulative packet size per connected master and slave (bytes)
system.iobus.pkt_size_system.ruby.l1_cntrl2.sequencer.mem-master-port::system.ruby.l1_cntrl1.sequencer.pio-slave-port            4                       # Cumulative packet size per connected master and slave (bytes)
system.iobus.pkt_size_system.ruby.l1_cntrl2.sequencer.mem-master-port::system.ruby.l1_cntrl2.sequencer.pio-slave-port         2456                       # Cumulative packet size per connected master and slave (bytes)
system.iobus.pkt_size_system.ruby.l1_cntrl2.sequencer.mem-master-port::system.ruby.l1_cntrl3.sequencer.pio-slave-port            4                       # Cumulative packet size per connected master and slave (bytes)
system.iobus.pkt_size_system.ruby.l1_cntrl2.sequencer.mem-master-port::total         2691                       # Cumulative packet size per connected master and slave (bytes)
system.iobus.pkt_size_system.ruby.l1_cntrl3.sequencer.mem-master-port::system.pc.south_bridge.ide.pio          240                       # Cumulative packet size per connected master and slave (bytes)
system.iobus.pkt_size_system.ruby.l1_cntrl3.sequencer.mem-master-port::system.pc.south_bridge.io_apic.pio           28                       # Cumulative packet size per connected master and slave (bytes)
system.iobus.pkt_size_system.ruby.l1_cntrl3.sequencer.mem-master-port::system.pc.com_1.pio           81                       # Cumulative packet size per connected master and slave (bytes)
system.iobus.pkt_size_system.ruby.l1_cntrl3.sequencer.mem-master-port::system.ruby.l1_cntrl0.sequencer.pio-slave-port            4                       # Cumulative packet size per connected master and slave (bytes)
system.iobus.pkt_size_system.ruby.l1_cntrl3.sequencer.mem-master-port::system.ruby.l1_cntrl3.sequencer.pio-slave-port         2440                       # Cumulative packet size per connected master and slave (bytes)
system.iobus.pkt_size_system.ruby.l1_cntrl3.sequencer.mem-master-port::total         2793                       # Cumulative packet size per connected master and slave (bytes)
system.iobus.pkt_size::total                    11272                       # Cumulative packet size per connected master and slave (bytes)
system.iobus.reqLayer2.occupancy              1580000                       # Layer occupancy (ticks)
system.iobus.reqLayer2.utilization                0.0                       # Layer utilization (%)
system.iobus.reqLayer8.occupancy                33496                       # Layer occupancy (ticks)
system.iobus.reqLayer8.utilization                0.0                       # Layer utilization (%)
system.iobus.reqLayer12.occupancy              120500                       # Layer occupancy (ticks)
system.iobus.reqLayer12.utilization               0.0                       # Layer utilization (%)
system.iobus.reqLayer17.occupancy             1569989                       # Layer occupancy (ticks)
system.iobus.reqLayer17.utilization               0.0                       # Layer utilization (%)
system.iobus.reqLayer18.occupancy             1691964                       # Layer occupancy (ticks)
system.iobus.reqLayer18.utilization               0.0                       # Layer utilization (%)
system.iobus.reqLayer19.occupancy             1555988                       # Layer occupancy (ticks)
system.iobus.reqLayer19.utilization               0.0                       # Layer utilization (%)
system.iobus.reqLayer20.occupancy             1552990                       # Layer occupancy (ticks)
system.iobus.reqLayer20.utilization               0.0                       # Layer utilization (%)
system.iobus.respLayer0.occupancy               78960                       # Layer occupancy (ticks)
system.iobus.respLayer0.utilization               0.0                       # Layer utilization (%)
system.iobus.respLayer2.occupancy             1254000                       # Layer occupancy (ticks)
system.iobus.respLayer2.utilization               0.0                       # Layer utilization (%)
system.iobus.respLayer4.occupancy             1332000                       # Layer occupancy (ticks)
system.iobus.respLayer4.utilization               0.0                       # Layer utilization (%)
system.iobus.respLayer6.occupancy             1197000                       # Layer occupancy (ticks)
system.iobus.respLayer6.utilization               0.0                       # Layer utilization (%)
system.iobus.respLayer8.occupancy             1356000                       # Layer occupancy (ticks)
system.iobus.respLayer8.utilization               0.0                       # Layer utilization (%)
system.pc.south_bridge.ide.disks.dma_read_full_pages          356                       # Number of full page size DMA reads (not PRD).
system.pc.south_bridge.ide.disks.dma_read_bytes      1458176                       # Number of bytes transfered via DMA reads (not PRD).
system.pc.south_bridge.ide.disks.dma_read_txs          356                       # Number of DMA read transactions (not PRD).
system.pc.south_bridge.ide.disks.dma_write_full_pages            0                       # Number of full page size DMA writes.
system.pc.south_bridge.ide.disks.dma_write_bytes            0                       # Number of bytes transfered via DMA writes.
system.pc.south_bridge.ide.disks.dma_write_txs            0                       # Number of DMA write transactions.
system.ruby.clk_domain.clock                      500                       # Clock period in ticks
system.ruby.outstanding_req_hist_seqr::bucket_size            1                      
system.ruby.outstanding_req_hist_seqr::max_bucket            9                      
system.ruby.outstanding_req_hist_seqr::samples   2273849293                      
system.ruby.outstanding_req_hist_seqr::mean     1.001963                      
system.ruby.outstanding_req_hist_seqr::gmean     1.001361                      
system.ruby.outstanding_req_hist_seqr::stdev     0.044257                      
system.ruby.outstanding_req_hist_seqr    |           0      0.00%      0.00% |  2269386730     99.80%     99.80% |     4462563      0.20%    100.00% |           0      0.00%    100.00% |           0      0.00%    100.00% |           0      0.00%    100.00% |           0      0.00%    100.00% |           0      0.00%    100.00% |           0      0.00%    100.00% |           0      0.00%    100.00%
system.ruby.outstanding_req_hist_seqr::total   2273849293                      
system.ruby.latency_hist_seqr::bucket_size          128                      
system.ruby.latency_hist_seqr::max_bucket         1279                      
system.ruby.latency_hist_seqr::samples     2273849293                      
system.ruby.latency_hist_seqr::mean          1.098543                      
system.ruby.latency_hist_seqr::gmean         1.004652                      
system.ruby.latency_hist_seqr::stdev         3.793683                      
system.ruby.latency_hist_seqr            |  2273480623     99.98%     99.98% |      326620      0.01%    100.00% |       18389      0.00%    100.00% |        6622      0.00%    100.00% |       11736      0.00%    100.00% |        4982      0.00%    100.00% |         199      0.00%    100.00% |         108      0.00%    100.00% |          13      0.00%    100.00% |           1      0.00%    100.00%
system.ruby.latency_hist_seqr::total       2273849293                      
system.ruby.hit_latency_hist_seqr::bucket_size            1                      
[...]
system.ruby.L1Cache_Controller.O.Fwd_GETX |        2853     26.80%     26.80% |         187      1.76%     28.56% |        3060     28.75%     57.30% |        4545     42.70%    100.00%
system.ruby.L1Cache_Controller.O.Fwd_GETX::total        10645                      
system.ruby.L1Cache_Controller.O.Fwd_GETS |        1411     14.06%     14.06% |         169      1.68%     15.74% |        2991     29.79%     45.53% |        5468     54.47%    100.00%
system.ruby.L1Cache_Controller.O.Fwd_GETS::total        10039                      
system.ruby.L1Cache_Controller.M.Load    |       38008      0.36%      0.36% |     8944733     85.52%     85.88% |     1427203     13.64%     99.53% |       49646      0.47%    100.00%
system.ruby.L1Cache_Controller.M.Load::total     10459590                      
system.ruby.L1Cache_Controller.M.Store   |        2384      3.67%      3.67% |       15694     24.15%     27.82% |       44432     68.38%     96.20% |        2466      3.80%    100.00%
system.ruby.L1Cache_Controller.M.Store::total        64976                      
system.ruby.L1Cache_Controller.M.L1_Replacement |        4021      7.11%      7.11% |       23208     41.02%     48.13% |       25638     45.32%     93.44% |        3709      6.56%    100.00%
system.ruby.L1Cache_Controller.M.L1_Replacement::total        56576                      
system.ruby.L1Cache_Controller.M.Fwd_GETX |         599     34.46%     34.46% |          56      3.22%     37.69% |         885     50.92%     88.61% |         198     11.39%    100.00%
system.ruby.L1Cache_Controller.M.Fwd_GETX::total         1738                      
system.ruby.L1Cache_Controller.M.Fwd_GETS |        2983     26.20%     26.20% |         311      2.73%     28.94% |        3344     29.37%     58.31% |        4746     41.69%    100.00%
system.ruby.L1Cache_Controller.M.Fwd_GETS::total        11384                      
system.ruby.L1Cache_Controller.M_W.Load  |        8631      2.99%      2.99% |      189605     65.62%     68.61% |       82157     28.43%     97.04% |        8550      2.96%    100.00%
system.ruby.L1Cache_Controller.M_W.Load::total       288943                      
system.ruby.L1Cache_Controller.M_W.Store |        5123      2.82%      2.82% |      164613     90.74%     93.57% |       10941      6.03%     99.60% |         732      0.40%    100.00%
system.ruby.L1Cache_Controller.M_W.Store::total       181409                      
system.ruby.L1Cache_Controller.M_W.Fwd_GETX |           0      0.00%      0.00% |          13     59.09%     59.09% |           0      0.00%     59.09% |           9     40.91%    100.00%
system.ruby.L1Cache_Controller.M_W.Fwd_GETX::total           22                      
system.ruby.L1Cache_Controller.M_W.Fwd_GETS |          15      7.85%      7.85% |          54     28.27%     36.13% |          45     23.56%     59.69% |          77     40.31%    100.00%
system.ruby.L1Cache_Controller.M_W.Fwd_GETS::total          191                      
system.ruby.L1Cache_Controller.M_W.Use_Timeout |        9991      7.42%      7.42% |       39269     29.16%     36.57% |       74209     55.10%     91.67% |       11221      8.33%    100.00%
system.ruby.L1Cache_Controller.M_W.Use_Timeout::total       134690                      
system.ruby.L1Cache_Controller.MM.Load   |      654352      0.82%      0.82% |    62836403     78.63%     79.44% |    15905204     19.90%     99.35% |      523099      0.65%    100.00%
system.ruby.L1Cache_Controller.MM.Load::total     79919058                      
system.ruby.L1Cache_Controller.MM.Store  |      699392      1.34%      1.34% |    38403540     73.78%     75.12% |    12405508     23.83%     98.96% |      542301      1.04%    100.00%
system.ruby.L1Cache_Controller.MM.Store::total     52050741                      
system.ruby.L1Cache_Controller.MM.L1_Replacement |       37325      3.18%      3.18% |      932808     79.57%     82.76% |      188632     16.09%     98.85% |       13530      1.15%    100.00%
system.ruby.L1Cache_Controller.MM.L1_Replacement::total      1172295                      
system.ruby.L1Cache_Controller.MM.Fwd_GETX |         597     27.95%     27.95% |         408     19.10%     47.05% |         564     26.40%     73.46% |         567     26.54%    100.00%
system.ruby.L1Cache_Controller.MM.Fwd_GETX::total         2136                      
system.ruby.L1Cache_Controller.MM.Fwd_GETS |        5667     43.29%     43.29% |        2459     18.78%     62.07% |        2577     19.68%     81.75% |        2389     18.25%    100.00%
system.ruby.L1Cache_Controller.MM.Fwd_GETS::total        13092                      
system.ruby.L1Cache_Controller.MM.Fwd_DMA |          56     20.66%     20.66% |         123     45.39%     66.05% |          51     18.82%     84.87% |          41     15.13%    100.00%
system.ruby.L1Cache_Controller.MM.Fwd_DMA::total          271                      
system.ruby.L1Cache_Controller.MM_W.Load |       15406     15.83%     15.83% |       53418     54.90%     70.73% |       27152     27.90%     98.64% |        1326      1.36%    100.00%
system.ruby.L1Cache_Controller.MM_W.Load::total        97302                      
system.ruby.L1Cache_Controller.MM_W.Store |      136548     11.32%     11.32% |      759242     62.92%     74.23% |      257321     21.32%     95.56% |       53623      4.44%    100.00%
system.ruby.L1Cache_Controller.MM_W.Store::total      1206734                      
system.ruby.L1Cache_Controller.MM_W.Fwd_GETX |           3     18.75%     18.75% |           3     18.75%     37.50% |           4     25.00%     62.50% |           6     37.50%    100.00%
system.ruby.L1Cache_Controller.MM_W.Fwd_GETX::total           16                      
system.ruby.L1Cache_Controller.MM_W.Fwd_GETS |          35     12.92%     12.92% |          52     19.19%     32.10% |          78     28.78%     60.89% |         106     39.11%    100.00%
system.ruby.L1Cache_Controller.MM_W.Fwd_GETS::total          271                      
system.ruby.L1Cache_Controller.MM_W.Use_Timeout |       41050      3.66%      3.66% |      920191     81.96%     85.62% |      147195     13.11%     98.73% |       14298      1.27%    100.00%
system.ruby.L1Cache_Controller.MM_W.Use_Timeout::total      1122734                      
system.ruby.L1Cache_Controller.IM.Ack    |        5215     43.78%     43.78% |        1967     16.51%     60.30% |        2565     21.53%     81.83% |        2164     18.17%    100.00%
system.ruby.L1Cache_Controller.IM.Ack::total        11911                      
system.ruby.L1Cache_Controller.IM.Exclusive_Data |       15563      2.67%      2.67% |      484312     82.95%     85.61% |       73191     12.54%     98.15% |       10810      1.85%    100.00%
system.ruby.L1Cache_Controller.IM.Exclusive_Data::total       583876                      
system.ruby.L1Cache_Controller.SM.Inv    |           0      0.00%      0.00% |           0      0.00%      0.00% |           0      0.00%      0.00% |           1    100.00%    100.00%
system.ruby.L1Cache_Controller.SM.Inv::total            1                      
system.ruby.L1Cache_Controller.SM.Ack    |        5612     51.87%     51.87% |        1933     17.87%     69.74% |        1935     17.89%     87.62% |        1339     12.38%    100.00%
system.ruby.L1Cache_Controller.SM.Ack::total        10819                      
system.ruby.L1Cache_Controller.SM.Exclusive_Data |       20343      5.69%      5.69% |      271249     75.91%     81.60% |       63027     17.64%     99.24% |        2717      0.76%    100.00%
system.ruby.L1Cache_Controller.SM.Exclusive_Data::total       357336                      
system.ruby.L1Cache_Controller.OM.Own_GETX |          21     18.58%     18.58% |          17     15.04%     33.63% |          36     31.86%     65.49% |          39     34.51%    100.00%
system.ruby.L1Cache_Controller.OM.Own_GETX::total          113                      
system.ruby.L1Cache_Controller.OM.Ack    |         448     15.80%     15.80% |         806     28.43%     44.23% |         909     32.06%     76.30% |         672     23.70%    100.00%
system.ruby.L1Cache_Controller.OM.Ack::total         2835                      
system.ruby.L1Cache_Controller.OM.All_acks |       35927      3.82%      3.82% |      755578     80.27%     84.08% |      136254     14.47%     98.56% |       13566      1.44%    100.00%
system.ruby.L1Cache_Controller.OM.All_acks::total       941325                      
system.ruby.L1Cache_Controller.IS.Data   |       87645      4.88%      4.88% |     1391842     77.56%     82.45% |      260316     14.51%     96.95% |       54666      3.05%    100.00%
system.ruby.L1Cache_Controller.IS.Data::total      1794469                      
system.ruby.L1Cache_Controller.IS.Exclusive_Data |       15114      4.78%      4.78% |      203882     64.50%     69.28% |       85150     26.94%     96.22% |       11953      3.78%    100.00%
system.ruby.L1Cache_Controller.IS.Exclusive_Data::total       316099                      
system.ruby.L1Cache_Controller.SI.Load   |           0      0.00%      0.00% |         115     84.56%     84.56% |          18     13.24%     97.79% |           3      2.21%    100.00%
system.ruby.L1Cache_Controller.SI.Load::total          136                      
system.ruby.L1Cache_Controller.SI.Ifetch |           0      0.00%      0.00% |           4    100.00%    100.00% |           0      0.00%    100.00% |           0      0.00%    100.00%
system.ruby.L1Cache_Controller.SI.Ifetch::total            4                      
system.ruby.L1Cache_Controller.SI.Fwd_GETS |           0      0.00%      0.00% |           1    100.00%    100.00% |           0      0.00%    100.00% |           0      0.00%    100.00%
system.ruby.L1Cache_Controller.SI.Fwd_GETS::total            1                      
system.ruby.L1Cache_Controller.SI.Inv    |           0      0.00%      0.00% |           0      0.00%      0.00% |           9    100.00%    100.00% |           0      0.00%    100.00%
system.ruby.L1Cache_Controller.SI.Inv::total            9                      
system.ruby.L1Cache_Controller.SI.Writeback_Ack |       53369      7.43%      7.43% |      534616     74.40%     81.83% |       90624     12.61%     94.44% |       39960      5.56%    100.00%
system.ruby.L1Cache_Controller.SI.Writeback_Ack::total       718569                      
system.ruby.L1Cache_Controller.SI.Writeback_Ack_Data |       12905      1.82%      1.82% |      583663     82.51%     84.33% |      102344     14.47%     98.80% |        8506      1.20%    100.00%
system.ruby.L1Cache_Controller.SI.Writeback_Ack_Data::total       707418                      
system.ruby.L1Cache_Controller.OI.Writeback_Ack_Data |         123     17.35%     17.35% |         186     26.23%     43.58% |         231     32.58%     76.16% |         169     23.84%    100.00%
system.ruby.L1Cache_Controller.OI.Writeback_Ack_Data::total          709                      
system.ruby.L1Cache_Controller.MI.Load   |           3     33.33%     33.33% |           6     66.67%    100.00% |           0      0.00%    100.00% |           0      0.00%    100.00%
system.ruby.L1Cache_Controller.MI.Load::total            9                      
system.ruby.L1Cache_Controller.MI.Writeback_Ack_Data |       41346      3.36%      3.36% |      956016     77.80%     81.16% |      214270     17.44%     98.60% |       17239      1.40%    100.00%
system.ruby.L1Cache_Controller.MI.Writeback_Ack_Data::total      1228871                      
system.ruby.L1Cache_Controller.II.Writeback_Nack |           0      0.00%      0.00% |           0      0.00%      0.00% |           9    100.00%    100.00% |           0      0.00%    100.00%
system.ruby.L1Cache_Controller.II.Writeback_Nack::total            9                      
system.ruby.L2Cache_Controller.L1_GETS        2110706      0.00%      0.00%
system.ruby.L2Cache_Controller.L1_GETX         941336      0.00%      0.00%
system.ruby.L2Cache_Controller.L1_PUTO            709      0.00%      0.00%
system.ruby.L2Cache_Controller.L1_PUTX        1228871      0.00%      0.00%
system.ruby.L2Cache_Controller.L1_PUTS_only      1284714      0.00%      0.00%
system.ruby.L2Cache_Controller.L1_PUTS         141431      0.00%      0.00%
system.ruby.L2Cache_Controller.Fwd_DMA            390      0.00%      0.00%
system.ruby.L2Cache_Controller.All_Acks        867647      0.00%      0.00%
system.ruby.L2Cache_Controller.Data           1905642      0.00%      0.00%
system.ruby.L2Cache_Controller.L1_WBCLEANDATA       707418      0.00%      0.00%
system.ruby.L2Cache_Controller.L1_WBDIRTYDATA      1229580      0.00%      0.00%
system.ruby.L2Cache_Controller.Writeback_Ack       871120      0.00%      0.00%
system.ruby.L2Cache_Controller.Unblock        2513038      0.00%      0.00%
system.ruby.L2Cache_Controller.Exclusive_Unblock      1257424      0.00%      0.00%
system.ruby.L2Cache_Controller.DmaAck             271      0.00%      0.00%
system.ruby.L2Cache_Controller.L2_Replacement      1562316      0.00%      0.00%
system.ruby.L2Cache_Controller.NP.L1_GETS      1037995      0.00%      0.00%
system.ruby.L2Cache_Controller.NP.L1_GETX       511440      0.00%      0.00%
system.ruby.L2Cache_Controller.ILS.L1_GETS         8919      0.00%      0.00%
system.ruby.L2Cache_Controller.ILS.L1_GETX       343541      0.00%      0.00%
system.ruby.L2Cache_Controller.ILS.L1_PUTS_only       697310      0.00%      0.00%
system.ruby.L2Cache_Controller.ILS.L1_PUTS        10108      0.00%      0.00%
system.ruby.L2Cache_Controller.ILX.L1_GETS        24476      0.00%      0.00%
system.ruby.L2Cache_Controller.ILX.L1_GETX         3874      0.00%      0.00%
system.ruby.L2Cache_Controller.ILX.L1_PUTX      1228871      0.00%      0.00%
system.ruby.L2Cache_Controller.ILX.L1_PUTS            9      0.00%      0.00%
system.ruby.L2Cache_Controller.ILX.Fwd_DMA          271      0.00%      0.00%
system.ruby.L2Cache_Controller.ILOX.L1_GETS         3382      0.00%      0.00%
system.ruby.L2Cache_Controller.ILOX.L1_GETX          121      0.00%      0.00%
system.ruby.L2Cache_Controller.ILOX.L1_PUTO          374      0.00%      0.00%
system.ruby.L2Cache_Controller.ILOSX.L1_GETS         6657      0.00%      0.00%
system.ruby.L2Cache_Controller.ILOSX.L1_GETX        10637      0.00%      0.00%
system.ruby.L2Cache_Controller.ILOSX.L1_PUTO          335      0.00%      0.00%
system.ruby.L2Cache_Controller.ILOSX.L1_PUTS_only         3873      0.00%      0.00%
system.ruby.L2Cache_Controller.ILOSX.L1_PUTS         1631      0.00%      0.00%
system.ruby.L2Cache_Controller.S.L1_GETS       594401      0.00%      0.00%
system.ruby.L2Cache_Controller.S.L1_GETX         4722      0.00%      0.00%
system.ruby.L2Cache_Controller.S.L2_Replacement       678375      0.00%      0.00%
system.ruby.L2Cache_Controller.OLSX.L1_GETS         1538      0.00%      0.00%
system.ruby.L2Cache_Controller.OLSX.L1_GETX          121      0.00%      0.00%
system.ruby.L2Cache_Controller.OLSX.L1_PUTS_only           97      0.00%      0.00%
system.ruby.L2Cache_Controller.OLSX.L1_PUTS         1438      0.00%      0.00%
system.ruby.L2Cache_Controller.OLSX.L2_Replacement          121      0.00%      0.00%
system.ruby.L2Cache_Controller.SLS.L1_GETS       130193      0.00%      0.00%
system.ruby.L2Cache_Controller.SLS.L1_GETX         7944      0.00%      0.00%
system.ruby.L2Cache_Controller.SLS.L1_PUTS_only       583413      0.00%      0.00%
system.ruby.L2Cache_Controller.SLS.L1_PUTS       128117      0.00%      0.00%
system.ruby.L2Cache_Controller.SLS.L2_Replacement        12819      0.00%      0.00%
system.ruby.L2Cache_Controller.M.L1_GETS       303007      0.00%      0.00%
system.ruby.L2Cache_Controller.M.L1_GETX        58925      0.00%      0.00%
system.ruby.L2Cache_Controller.M.Fwd_DMA          119      0.00%      0.00%
system.ruby.L2Cache_Controller.M.L2_Replacement       870999      0.00%      0.00%
system.ruby.L2Cache_Controller.ILOXW.L1_WBDIRTYDATA          374      0.00%      0.00%
system.ruby.L2Cache_Controller.ILOXW.Unblock         3873      0.00%      0.00%
system.ruby.L2Cache_Controller.ILOSXW.L1_WBDIRTYDATA          335      0.00%      0.00%
system.ruby.L2Cache_Controller.ILOSXW.Unblock         1631      0.00%      0.00%
system.ruby.L2Cache_Controller.SLSW.L1_GETS            3      0.00%      0.00%
system.ruby.L2Cache_Controller.SLSW.L1_PUTS            1      0.00%      0.00%
system.ruby.L2Cache_Controller.SLSW.Unblock       128117      0.00%      0.00%
system.ruby.L2Cache_Controller.ILSW.L1_GETX            1      0.00%      0.00%
system.ruby.L2Cache_Controller.ILSW.L1_WBCLEANDATA        10108      0.00%      0.00%
system.ruby.L2Cache_Controller.IW.L1_WBCLEANDATA       697310      0.00%      0.00%
system.ruby.L2Cache_Controller.SW.L1_GETS            1      0.00%      0.00%
system.ruby.L2Cache_Controller.SW.Unblock       583413      0.00%      0.00%
system.ruby.L2Cache_Controller.SW.L2_Replacement            2      0.00%      0.00%
system.ruby.L2Cache_Controller.OXW.Unblock           97      0.00%      0.00%
system.ruby.L2Cache_Controller.OLSXW.Unblock         1438      0.00%      0.00%
system.ruby.L2Cache_Controller.ILXW.L1_WBDIRTYDATA      1228871      0.00%      0.00%
system.ruby.L2Cache_Controller.IFLS.L1_GETS            4      0.00%      0.00%
system.ruby.L2Cache_Controller.IFLS.L1_PUTS_only            3      0.00%      0.00%
system.ruby.L2Cache_Controller.IFLS.Unblock         8919      0.00%      0.00%
system.ruby.L2Cache_Controller.IFLOX.Unblock         3382      0.00%      0.00%
system.ruby.L2Cache_Controller.IFLOX.Exclusive_Unblock          121      0.00%      0.00%
system.ruby.L2Cache_Controller.IFLOXX.L1_GETS           73      0.00%      0.00%
system.ruby.L2Cache_Controller.IFLOXX.L1_GETX            7      0.00%      0.00%
system.ruby.L2Cache_Controller.IFLOXX.Unblock        11384      0.00%      0.00%
system.ruby.L2Cache_Controller.IFLOXX.Exclusive_Unblock        17087      0.00%      0.00%
system.ruby.L2Cache_Controller.IFLOSX.Unblock         6657      0.00%      0.00%
system.ruby.L2Cache_Controller.IFLXO.L1_GETS           54      0.00%      0.00%
system.ruby.L2Cache_Controller.IFLXO.L1_GETX            3      0.00%      0.00%
system.ruby.L2Cache_Controller.IFLXO.Exclusive_Unblock        10637      0.00%      0.00%
system.ruby.L2Cache_Controller.IGS.Data       1037995      0.00%      0.00%
system.ruby.L2Cache_Controller.IGS.Unblock      1037995      0.00%      0.00%
system.ruby.L2Cache_Controller.IGM.Data        516162      0.00%      0.00%
system.ruby.L2Cache_Controller.IGMLS.L1_PUTS_only           14      0.00%      0.00%
system.ruby.L2Cache_Controller.IGMLS.L1_PUTS          101      0.00%      0.00%
system.ruby.L2Cache_Controller.IGMLS.Data       351485      0.00%      0.00%
system.ruby.L2Cache_Controller.IGMO.L1_PUTS_only            3      0.00%      0.00%
system.ruby.L2Cache_Controller.IGMO.L1_PUTS           24      0.00%      0.00%
system.ruby.L2Cache_Controller.IGMO.All_Acks       867647      0.00%      0.00%
system.ruby.L2Cache_Controller.IGMO.Exclusive_Unblock       867647      0.00%      0.00%
system.ruby.L2Cache_Controller.MM.Exclusive_Unblock        58925      0.00%      0.00%
system.ruby.L2Cache_Controller.SS.Unblock       594401      0.00%      0.00%
system.ruby.L2Cache_Controller.OO.Exclusive_Unblock       303007      0.00%      0.00%
system.ruby.L2Cache_Controller.OLSXS.Unblock         1538      0.00%      0.00%
system.ruby.L2Cache_Controller.SLSS.L1_GETS            3      0.00%      0.00%
system.ruby.L2Cache_Controller.SLSS.L1_PUTS_only            1      0.00%      0.00%
system.ruby.L2Cache_Controller.SLSS.L1_PUTS            2      0.00%      0.00%
system.ruby.L2Cache_Controller.SLSS.Unblock       130193      0.00%      0.00%
system.ruby.L2Cache_Controller.MI.Writeback_Ack       870999      0.00%      0.00%
system.ruby.L2Cache_Controller.OLSI.Writeback_Ack          121      0.00%      0.00%
system.ruby.L2Cache_Controller.ILXD.DmaAck          271      0.00%      0.00%

---------- End Simulation Statistics   ----------
