
---------- Begin Simulation Statistics ----------
sim_seconds                                  1.812035                       # Number of seconds simulated
sim_ticks                                1812034537000                       # Number of ticks simulated
final_tick                               53653810463501                       # Number of ticks from beginning of simulation (restored from checkpoints and never reset)
sim_freq                                 1000000000000                       # Frequency of simulated ticks
host_inst_rate                                 112074                       # Simulator instruction rate (inst/s)
host_op_rate                                   167024                       # Simulator op (including micro ops) rate (op/s)
host_tick_rate                              280044757                       # Simulator tick rate (ticks/s)
host_mem_usage                                1811528                       # Number of bytes of host memory used
host_seconds                                  6470.52                       # Real time elapsed on the host
sim_insts                                   725178696                       # Number of instructions simulated
sim_ops                                    1080733795                       # Number of ops (including micro ops) simulated
system.voltage_domain.voltage                       1                       # Voltage in Volts
system.clk_domain.clock                          1000                       # Clock period in ticks
system.mem_ctrls.bytes_read::ruby.dir_cntrl0    381184896                       # Number of bytes read from this memory
system.mem_ctrls.bytes_read::total          381184896                       # Number of bytes read from this memory
system.mem_ctrls.bytes_written::ruby.dir_cntrl0    174017408                       # Number of bytes written to this memory
system.mem_ctrls.bytes_written::total       174017408                       # Number of bytes written to this memory
system.mem_ctrls.num_reads::ruby.dir_cntrl0      5956014                       # Number of read requests responded to by this memory
system.mem_ctrls.num_reads::total             5956014                       # Number of read requests responded to by this memory
system.mem_ctrls.num_writes::ruby.dir_cntrl0      2719022                       # Number of write requests responded to by this memory
system.mem_ctrls.num_writes::total            2719022                       # Number of write requests responded to by this memory
system.mem_ctrls.bw_read::ruby.dir_cntrl0    210362931                       # Total read bandwidth from this memory (bytes/s)
system.mem_ctrls.bw_read::total             210362931                       # Total read bandwidth from this memory (bytes/s)
system.mem_ctrls.bw_write::ruby.dir_cntrl0     96034267                       # Write bandwidth from this memory (bytes/s)
system.mem_ctrls.bw_write::total             96034267                       # Write bandwidth from this memory (bytes/s)
system.mem_ctrls.bw_total::ruby.dir_cntrl0    306397198                       # Total bandwidth to/from this memory (bytes/s)
system.mem_ctrls.bw_total::total            306397198                       # Total bandwidth to/from this memory (bytes/s)
system.mem_ctrls.readReqs                     5956014                       # Number of read requests accepted
system.mem_ctrls.writeReqs                    2719022                       # Number of write requests accepted
system.mem_ctrls.readBursts                   5956014                       # Number of DRAM read bursts, including those serviced by the write queue
system.mem_ctrls.writeBursts                  2719022                       # Number of DRAM write bursts, including those merged in the write queue
system.mem_ctrls.bytesReadDRAM              380672192                       # Total number of bytes read from DRAM
system.mem_ctrls.bytesReadWrQ                  512704                       # Total number of bytes read from write queue
system.mem_ctrls.bytesWritten               174017408                       # Total number of bytes written to DRAM
system.mem_ctrls.bytesReadSys               381184896                       # Total read bytes from the system interface side
system.mem_ctrls.bytesWrittenSys            174017408                       # Total written bytes from the system interface side
system.mem_ctrls.servicedByWrQ                   8011                       # Number of DRAM read bursts serviced by the write queue
system.mem_ctrls.mergedWrBursts                     0                       # Number of DRAM write bursts merged with an existing one
system.mem_ctrls.neitherReadNorWriteReqs            0                       # Number of requests that are neither read nor write
system.mem_ctrls.perBankRdBursts::0            376288                       # Per bank write bursts
system.mem_ctrls.perBankRdBursts::1            383005                       # Per bank write bursts
system.mem_ctrls.perBankRdBursts::2            370449                       # Per bank write bursts
system.mem_ctrls.perBankRdBursts::3            369308                       # Per bank write bursts
system.mem_ctrls.perBankRdBursts::4            377959                       # Per bank write bursts
system.mem_ctrls.perBankRdBursts::5            371107                       # Per bank write bursts
system.mem_ctrls.perBankRdBursts::6            382873                       # Per bank write bursts
system.mem_ctrls.perBankRdBursts::7            370594                       # Per bank write bursts
system.mem_ctrls.perBankRdBursts::8            372656                       # Per bank write bursts
system.mem_ctrls.perBankRdBursts::9            370121                       # Per bank write bursts
system.mem_ctrls.perBankRdBursts::10           364729                       # Per bank write bursts
system.mem_ctrls.perBankRdBursts::11           365896                       # Per bank write bursts
system.mem_ctrls.perBankRdBursts::12           364985                       # Per bank write bursts
system.mem_ctrls.perBankRdBursts::13           366077                       # Per bank write bursts
system.mem_ctrls.perBankRdBursts::14           368486                       # Per bank write bursts
system.mem_ctrls.perBankRdBursts::15           373470                       # Per bank write bursts
system.mem_ctrls.perBankWrBursts::0            170481                       # Per bank write bursts
system.mem_ctrls.perBankWrBursts::1            183432                       # Per bank write bursts
system.mem_ctrls.perBankWrBursts::2            170061                       # Per bank write bursts
system.mem_ctrls.perBankWrBursts::3            168977                       # Per bank write bursts
system.mem_ctrls.perBankWrBursts::4            174372                       # Per bank write bursts
system.mem_ctrls.perBankWrBursts::5            169969                       # Per bank write bursts
system.mem_ctrls.perBankWrBursts::6            177750                       # Per bank write bursts
system.mem_ctrls.perBankWrBursts::7            168708                       # Per bank write bursts
system.mem_ctrls.perBankWrBursts::8            170978                       # Per bank write bursts
system.mem_ctrls.perBankWrBursts::9            167840                       # Per bank write bursts
system.mem_ctrls.perBankWrBursts::10           165377                       # Per bank write bursts
system.mem_ctrls.perBankWrBursts::11           165815                       # Per bank write bursts
system.mem_ctrls.perBankWrBursts::12           166078                       # Per bank write bursts
system.mem_ctrls.perBankWrBursts::13           165393                       # Per bank write bursts
system.mem_ctrls.perBankWrBursts::14           165982                       # Per bank write bursts
system.mem_ctrls.perBankWrBursts::15           167809                       # Per bank write bursts
system.mem_ctrls.numRdRetry                         0                       # Number of times read queue was full causing retry
system.mem_ctrls.numWrRetry                         0                       # Number of times write queue was full causing retry
system.mem_ctrls.totGap                  1812034466000                       # Total gap between requests
system.mem_ctrls.readPktSize::0                     0                       # Read request sizes (log2)
system.mem_ctrls.readPktSize::1                     0                       # Read request sizes (log2)
system.mem_ctrls.readPktSize::2                     0                       # Read request sizes (log2)
system.mem_ctrls.readPktSize::3                     0                       # Read request sizes (log2)
system.mem_ctrls.readPktSize::4                     0                       # Read request sizes (log2)
system.mem_ctrls.readPktSize::5                     0                       # Read request sizes (log2)
system.mem_ctrls.readPktSize::6               5956014                       # Read request sizes (log2)
system.mem_ctrls.writePktSize::0                    0                       # Write request sizes (log2)
system.mem_ctrls.writePktSize::1                    0                       # Write request sizes (log2)
system.mem_ctrls.writePktSize::2                    0                       # Write request sizes (log2)
system.mem_ctrls.writePktSize::3                    0                       # Write request sizes (log2)
system.mem_ctrls.writePktSize::4                    0                       # Write request sizes (log2)
system.mem_ctrls.writePktSize::5                    0                       # Write request sizes (log2)
system.mem_ctrls.writePktSize::6              2719022                       # Write request sizes (log2)
system.mem_ctrls.rdQLenPdf::0                 5924332                       # What read queue length does an incoming req see
system.mem_ctrls.rdQLenPdf::1                   23662                       # What read queue length does an incoming req see
system.mem_ctrls.rdQLenPdf::2                       9                       # What read queue length does an incoming req see
system.mem_ctrls.rdQLenPdf::3                       0                       # What read queue length does an incoming req see
system.mem_ctrls.rdQLenPdf::4                       0                       # What read queue length does an incoming req see
system.mem_ctrls.rdQLenPdf::5                       0                       # What read queue length does an incoming req see
system.mem_ctrls.rdQLenPdf::6                       0                       # What read queue length does an incoming req see
system.mem_ctrls.rdQLenPdf::7                       0                       # What read queue length does an incoming req see
system.mem_ctrls.rdQLenPdf::8                       0                       # What read queue length does an incoming req see
system.mem_ctrls.rdQLenPdf::9                       0                       # What read queue length does an incoming req see
system.mem_ctrls.rdQLenPdf::10                      0                       # What read queue length does an incoming req see
system.mem_ctrls.rdQLenPdf::11                      0                       # What read queue length does an incoming req see
system.mem_ctrls.rdQLenPdf::12                      0                       # What read queue length does an incoming req see
system.mem_ctrls.rdQLenPdf::13                      0                       # What read queue length does an incoming req see
system.mem_ctrls.rdQLenPdf::14                      0                       # What read queue length does an incoming req see
system.mem_ctrls.rdQLenPdf::15                      0                       # What read queue length does an incoming req see
system.mem_ctrls.rdQLenPdf::16                      0                       # What read queue length does an incoming req see
system.mem_ctrls.rdQLenPdf::17                      0                       # What read queue length does an incoming req see
system.mem_ctrls.rdQLenPdf::18                      0                       # What read queue length does an incoming req see
system.mem_ctrls.rdQLenPdf::19                      0                       # What read queue length does an incoming req see
system.mem_ctrls.rdQLenPdf::20                      0                       # What read queue length does an incoming req see
system.mem_ctrls.rdQLenPdf::21                      0                       # What read queue length does an incoming req see
system.mem_ctrls.rdQLenPdf::22                      0                       # What read queue length does an incoming req see
system.mem_ctrls.rdQLenPdf::23                      0                       # What read queue length does an incoming req see
system.mem_ctrls.rdQLenPdf::24                      0                       # What read queue length does an incoming req see
system.mem_ctrls.rdQLenPdf::25                      0                       # What read queue length does an incoming req see
system.mem_ctrls.rdQLenPdf::26                      0                       # What read queue length does an incoming req see
system.mem_ctrls.rdQLenPdf::27                      0                       # What read queue length does an incoming req see
system.mem_ctrls.rdQLenPdf::28                      0                       # What read queue length does an incoming req see
system.mem_ctrls.rdQLenPdf::29                      0                       # What read queue length does an incoming req see
system.mem_ctrls.rdQLenPdf::30                      0                       # What read queue length does an incoming req see
system.mem_ctrls.rdQLenPdf::31                      0                       # What read queue length does an incoming req see
system.mem_ctrls.wrQLenPdf::0                       0                       # What write queue length does an incoming req see
system.mem_ctrls.wrQLenPdf::1                       0                       # What write queue length does an incoming req see
system.mem_ctrls.wrQLenPdf::2                       0                       # What write queue length does an incoming req see
system.mem_ctrls.wrQLenPdf::3                       0                       # What write queue length does an incoming req see
system.mem_ctrls.wrQLenPdf::4                       0                       # What write queue length does an incoming req see
system.mem_ctrls.wrQLenPdf::5                       0                       # What write queue length does an incoming req see
system.mem_ctrls.wrQLenPdf::6                       0                       # What write queue length does an incoming req see
system.mem_ctrls.wrQLenPdf::7                       0                       # What write queue length does an incoming req see
system.mem_ctrls.wrQLenPdf::8                       0                       # What write queue length does an incoming req see
system.mem_ctrls.wrQLenPdf::9                       0                       # What write queue length does an incoming req see
system.mem_ctrls.wrQLenPdf::10                      0                       # What write queue length does an incoming req see
system.mem_ctrls.wrQLenPdf::11                      0                       # What write queue length does an incoming req see
system.mem_ctrls.wrQLenPdf::12                      0                       # What write queue length does an incoming req see
system.mem_ctrls.wrQLenPdf::13                      0                       # What write queue length does an incoming req see
system.mem_ctrls.wrQLenPdf::14                      0                       # What write queue length does an incoming req see
system.mem_ctrls.wrQLenPdf::15                   2585                       # What write queue length does an incoming req see
system.mem_ctrls.wrQLenPdf::16                   3064                       # What write queue length does an incoming req see
system.mem_ctrls.wrQLenPdf::17                 167079                       # What write queue length does an incoming req see
system.mem_ctrls.wrQLenPdf::18                 169770                       # What write queue length does an incoming req see
system.mem_ctrls.wrQLenPdf::19                 169828                       # What write queue length does an incoming req see
system.mem_ctrls.wrQLenPdf::20                 169838                       # What write queue length does an incoming req see
system.mem_ctrls.wrQLenPdf::21                 169995                       # What write queue length does an incoming req see
system.mem_ctrls.wrQLenPdf::22                 169792                       # What write queue length does an incoming req see
system.mem_ctrls.wrQLenPdf::23                 169795                       # What write queue length does an incoming req see
system.mem_ctrls.wrQLenPdf::24                 169768                       # What write queue length does an incoming req see
system.mem_ctrls.wrQLenPdf::25                 169720                       # What write queue length does an incoming req see
system.mem_ctrls.wrQLenPdf::26                 169719                       # What write queue length does an incoming req see
system.mem_ctrls.wrQLenPdf::27                 169697                       # What write queue length does an incoming req see
system.mem_ctrls.wrQLenPdf::28                 169711                       # What write queue length does an incoming req see
system.mem_ctrls.wrQLenPdf::29                 169701                       # What write queue length does an incoming req see
system.mem_ctrls.wrQLenPdf::30                 169672                       # What write queue length does an incoming req see
system.mem_ctrls.wrQLenPdf::31                 169665                       # What write queue length does an incoming req see
system.mem_ctrls.wrQLenPdf::32                 169604                       # What write queue length does an incoming req see
system.mem_ctrls.wrQLenPdf::33                     19                       # What write queue length does an incoming req see
system.mem_ctrls.wrQLenPdf::34                      0                       # What write queue length does an incoming req see
system.mem_ctrls.wrQLenPdf::35                      0                       # What write queue length does an incoming req see
system.mem_ctrls.wrQLenPdf::36                      0                       # What write queue length does an incoming req see
system.mem_ctrls.wrQLenPdf::37                      0                       # What write queue length does an incoming req see
system.mem_ctrls.wrQLenPdf::38                      0                       # What write queue length does an incoming req see
system.mem_ctrls.wrQLenPdf::39                      0                       # What write queue length does an incoming req see
system.mem_ctrls.wrQLenPdf::40                      0                       # What write queue length does an incoming req see
system.mem_ctrls.wrQLenPdf::41                      0                       # What write queue length does an incoming req see
system.mem_ctrls.wrQLenPdf::42                      0                       # What write queue length does an incoming req see
system.mem_ctrls.wrQLenPdf::43                      0                       # What write queue length does an incoming req see
system.mem_ctrls.wrQLenPdf::44                      0                       # What write queue length does an incoming req see
system.mem_ctrls.wrQLenPdf::45                      0                       # What write queue length does an incoming req see
system.mem_ctrls.wrQLenPdf::46                      0                       # What write queue length does an incoming req see
system.mem_ctrls.wrQLenPdf::47                      0                       # What write queue length does an incoming req see
system.mem_ctrls.wrQLenPdf::48                      0                       # What write queue length does an incoming req see
system.mem_ctrls.wrQLenPdf::49                      0                       # What write queue length does an incoming req see
system.mem_ctrls.wrQLenPdf::50                      0                       # What write queue length does an incoming req see
system.mem_ctrls.wrQLenPdf::51                      0                       # What write queue length does an incoming req see
system.mem_ctrls.wrQLenPdf::52                      0                       # What write queue length does an incoming req see
system.mem_ctrls.wrQLenPdf::53                      0                       # What write queue length does an incoming req see
system.mem_ctrls.wrQLenPdf::54                      0                       # What write queue length does an incoming req see
system.mem_ctrls.wrQLenPdf::55                      0                       # What write queue length does an incoming req see
system.mem_ctrls.wrQLenPdf::56                      0                       # What write queue length does an incoming req see
system.mem_ctrls.wrQLenPdf::57                      0                       # What write queue length does an incoming req see
system.mem_ctrls.wrQLenPdf::58                      0                       # What write queue length does an incoming req see
system.mem_ctrls.wrQLenPdf::59                      0                       # What write queue length does an incoming req see
system.mem_ctrls.wrQLenPdf::60                      0                       # What write queue length does an incoming req see
system.mem_ctrls.wrQLenPdf::61                      0                       # What write queue length does an incoming req see
system.mem_ctrls.wrQLenPdf::62                      0                       # What write queue length does an incoming req see
system.mem_ctrls.wrQLenPdf::63                      0                       # What write queue length does an incoming req see
system.mem_ctrls.bytesPerActivate::samples      3744107                       # Bytes accessed per row activation
system.mem_ctrls.bytesPerActivate::mean    148.150125                       # Bytes accessed per row activation
system.mem_ctrls.bytesPerActivate::gmean    90.599667                       # Bytes accessed per row activation
system.mem_ctrls.bytesPerActivate::stdev   227.360620                       # Bytes accessed per row activation
system.mem_ctrls.bytesPerActivate::0-127      2991615     79.90%     79.90% # Bytes accessed per row activation
system.mem_ctrls.bytesPerActivate::128-255       264850      7.07%     86.98% # Bytes accessed per row activation
system.mem_ctrls.bytesPerActivate::256-383       100644      2.69%     89.66% # Bytes accessed per row activation
system.mem_ctrls.bytesPerActivate::384-511        72235      1.93%     91.59% # Bytes accessed per row activation
system.mem_ctrls.bytesPerActivate::512-639        64392      1.72%     93.31% # Bytes accessed per row activation
system.mem_ctrls.bytesPerActivate::640-767        43264      1.16%     94.47% # Bytes accessed per row activation
system.mem_ctrls.bytesPerActivate::768-895        33463      0.89%     95.36% # Bytes accessed per row activation
system.mem_ctrls.bytesPerActivate::896-1023        27594      0.74%     96.10% # Bytes accessed per row activation
system.mem_ctrls.bytesPerActivate::1024-1151       146050      3.90%    100.00% # Bytes accessed per row activation
system.mem_ctrls.bytesPerActivate::total      3744107                       # Bytes accessed per row activation
system.mem_ctrls.rdPerTurnAround::samples       169573                       # Reads before turning the bus around for writes
system.mem_ctrls.rdPerTurnAround::mean      35.165516                       # Reads before turning the bus around for writes
system.mem_ctrls.rdPerTurnAround::gmean     24.774748                       # Reads before turning the bus around for writes
system.mem_ctrls.rdPerTurnAround::stdev    176.372254                       # Reads before turning the bus around for writes
system.mem_ctrls.rdPerTurnAround::0-511        168909     99.61%     99.61% # Reads before turning the bus around for writes
system.mem_ctrls.rdPerTurnAround::512-1023          142      0.08%     99.69% # Reads before turning the bus around for writes
system.mem_ctrls.rdPerTurnAround::1024-1535           87      0.05%     99.74% # Reads before turning the bus around for writes
system.mem_ctrls.rdPerTurnAround::1536-2047          164      0.10%     99.84% # Reads before turning the bus around for writes
system.mem_ctrls.rdPerTurnAround::2048-2559           83      0.05%     99.89% # Reads before turning the bus around for writes
system.mem_ctrls.rdPerTurnAround::2560-3071           30      0.02%     99.91% # Reads before turning the bus around for writes
system.mem_ctrls.rdPerTurnAround::3072-3583           37      0.02%     99.93% # Reads before turning the bus around for writes
system.mem_ctrls.rdPerTurnAround::3584-4095           52      0.03%     99.96% # Reads before turning the bus around for writes
system.mem_ctrls.rdPerTurnAround::4096-4607           22      0.01%     99.97% # Reads before turning the bus around for writes
system.mem_ctrls.rdPerTurnAround::4608-5119            8      0.00%     99.98% # Reads before turning the bus around for writes
system.mem_ctrls.rdPerTurnAround::5120-5631           15      0.01%     99.99% # Reads before turning the bus around for writes
system.mem_ctrls.rdPerTurnAround::5632-6143            4      0.00%     99.99% # Reads before turning the bus around for writes
system.mem_ctrls.rdPerTurnAround::6144-6655            2      0.00%     99.99% # Reads before turning the bus around for writes
system.mem_ctrls.rdPerTurnAround::6656-7167            2      0.00%     99.99% # Reads before turning the bus around for writes
system.mem_ctrls.rdPerTurnAround::7168-7679            2      0.00%     99.99% # Reads before turning the bus around for writes
system.mem_ctrls.rdPerTurnAround::7680-8191            3      0.00%     99.99% # Reads before turning the bus around for writes
system.mem_ctrls.rdPerTurnAround::8192-8703            4      0.00%    100.00% # Reads before turning the bus around for writes
system.mem_ctrls.rdPerTurnAround::8704-9215            1      0.00%    100.00% # Reads before turning the bus around for writes
system.mem_ctrls.rdPerTurnAround::9728-10239            3      0.00%    100.00% # Reads before turning the bus around for writes
system.mem_ctrls.rdPerTurnAround::10240-10751            2      0.00%    100.00% # Reads before turning the bus around for writes
system.mem_ctrls.rdPerTurnAround::14848-15359            1      0.00%    100.00% # Reads before turning the bus around for writes
system.mem_ctrls.rdPerTurnAround::total        169573                       # Reads before turning the bus around for writes
system.mem_ctrls.wrPerTurnAround::samples       169573                       # Writes before turning the bus around for reads
system.mem_ctrls.wrPerTurnAround::mean      16.034522                       # Writes before turning the bus around for reads
system.mem_ctrls.wrPerTurnAround::gmean     16.032591                       # Writes before turning the bus around for reads
system.mem_ctrls.wrPerTurnAround::stdev      0.258554                       # Writes before turning the bus around for reads
system.mem_ctrls.wrPerTurnAround::16           166518     98.20%     98.20% # Writes before turning the bus around for reads
system.mem_ctrls.wrPerTurnAround::17              296      0.17%     98.37% # Writes before turning the bus around for reads
system.mem_ctrls.wrPerTurnAround::18             2721      1.60%     99.98% # Writes before turning the bus around for reads
system.mem_ctrls.wrPerTurnAround::19               37      0.02%    100.00% # Writes before turning the bus around for reads
system.mem_ctrls.wrPerTurnAround::21                1      0.00%    100.00% # Writes before turning the bus around for reads
system.mem_ctrls.wrPerTurnAround::total        169573                       # Writes before turning the bus around for reads
system.mem_ctrls.totQLat                 101719574344                       # Total ticks spent queuing
system.mem_ctrls.totMemAccLat            213244630594                       # Total ticks spent from burst creation until serviced by the DRAM
system.mem_ctrls.totBusLat                29740015000                       # Total ticks spent in databus transfers
system.mem_ctrls.avgQLat                     17101.47                       # Average queueing delay per DRAM burst
system.mem_ctrls.avgBusLat                    5000.00                       # Average bus latency per DRAM burst
system.mem_ctrls.avgMemAccLat                35851.47                       # Average memory access latency per DRAM burst
system.mem_ctrls.avgRdBW                       210.08                       # Average DRAM read bandwidth in MiByte/s
system.mem_ctrls.avgWrBW                        96.03                       # Average achieved write bandwidth in MiByte/s
system.mem_ctrls.avgRdBWSys                    210.36                       # Average system read bandwidth in MiByte/s
system.mem_ctrls.avgWrBWSys                     96.03                       # Average system write bandwidth in MiByte/s
system.mem_ctrls.peakBW                      12800.00                       # Theoretical peak bandwidth in MiByte/s
system.mem_ctrls.busUtil                         2.39                       # Data bus utilization in percentage
system.mem_ctrls.busUtilRead                     1.64                       # Data bus utilization in percentage for reads
system.mem_ctrls.busUtilWrite                    0.75                       # Data bus utilization in percentage for writes
system.mem_ctrls.avgRdQLen                       1.00                       # Average read queue length when enqueuing
system.mem_ctrls.avgWrQLen                      25.48                       # Average write queue length when enqueuing
system.mem_ctrls.readRowHits                  3775592                       # Number of row buffer hits during reads
system.mem_ctrls.writeRowHits                 1147327                       # Number of row buffer hits during writes
system.mem_ctrls.readRowHitRate                 63.48                       # Row buffer hit rate for reads
system.mem_ctrls.writeRowHitRate                42.20                       # Row buffer hit rate for writes
system.mem_ctrls.avgGap                     208879.19                       # Average gap between requests
system.mem_ctrls.pageHitRate                    56.80                       # Row buffer hit rate, read and write combined
system.mem_ctrls_0.actEnergy              14455113120                       # Energy for activate commands per rank (pJ)
system.mem_ctrls_0.preEnergy               7887214500                       # Energy for precharge commands per rank (pJ)
system.mem_ctrls_0.readEnergy             23478616200                       # Energy for read commands per rank (pJ)
system.mem_ctrls_0.writeEnergy             8966700000                       # Energy for write commands per rank (pJ)
system.mem_ctrls_0.refreshEnergy         118572798240                       # Energy for refresh commands per rank (pJ)
system.mem_ctrls_0.actBackEnergy         613239684435                       # Energy for active background per rank (pJ)
system.mem_ctrls_0.preBackEnergy         551307807750                       # Energy for precharge background per rank (pJ)
system.mem_ctrls_0.totalEnergy           1337907934245                       # Total energy per rank (pJ)
system.mem_ctrls_0.averagePower            736.978728                       # Core power per rank (mW)
system.mem_ctrls_0.memoryStateTime::IDLE 911274074004                       # Time in different power states
system.mem_ctrls_0.memoryStateTime::REF   60507980000                       # Time in different power states
system.mem_ctrls_0.memoryStateTime::PRE_PDN            0                       # Time in different power states
system.mem_ctrls_0.memoryStateTime::ACT  840258475496                       # Time in different power states
system.mem_ctrls_0.memoryStateTime::ACT_PDN            0                       # Time in different power states
system.mem_ctrls_1.actEnergy              13880553120                       # Energy for activate commands per rank (pJ)
system.mem_ctrls_1.preEnergy               7573714500                       # Energy for precharge commands per rank (pJ)
system.mem_ctrls_1.readEnergy             23033907000                       # Energy for read commands per rank (pJ)
system.mem_ctrls_1.writeEnergy             8652562560                       # Energy for write commands per rank (pJ)
system.mem_ctrls_1.refreshEnergy         118572798240                       # Energy for refresh commands per rank (pJ)
system.mem_ctrls_1.actBackEnergy         605509629435                       # Energy for active background per rank (pJ)
system.mem_ctrls_1.preBackEnergy         558088557750                       # Energy for precharge background per rank (pJ)
system.mem_ctrls_1.totalEnergy           1335311722605                       # Total energy per rank (pJ)
system.mem_ctrls_1.averagePower            735.548620                       # Core power per rank (mW)
system.mem_ctrls_1.memoryStateTime::IDLE 922464634253                       # Time in different power states
system.mem_ctrls_1.memoryStateTime::REF   60507980000                       # Time in different power states
system.mem_ctrls_1.memoryStateTime::PRE_PDN            0                       # Time in different power states
system.mem_ctrls_1.memoryStateTime::ACT  829066844497                       # Time in different power states
system.mem_ctrls_1.memoryStateTime::ACT_PDN            0                       # Time in different power states
system.cpu_voltage_domain.voltage                   1                       # Voltage in Volts
system.cpu_clk_domain.clock                       500                       # Clock period in ticks
system.cpu0.apic_clk_domain.clock                8000                       # Clock period in ticks
system.cpu0.numCycles                      3622036826                       # number of cpu cycles simulated
system.cpu0.numWorkItemsStarted                     0                       # number of work items this cpu started
system.cpu0.numWorkItemsCompleted                   0                       # number of work items this cpu completed
system.cpu0.kern.inst.arm                           0                       # number of arm instructions executed
system.cpu0.kern.inst.quiesce                       0                       # number of quiesce instructions executed
system.cpu0.committedInsts                    4102451                       # Number of instructions committed
system.cpu0.committedOps                      8279917                       # Number of ops (including micro ops) committed
system.cpu0.num_int_alu_accesses              8128451                       # Number of integer alu accesses
system.cpu0.num_fp_alu_accesses                  1778                       # Number of float alu accesses
system.cpu0.num_func_calls                     221576                       # number of times a function call or return occured
system.cpu0.num_conditional_control_insts       678741                       # number of instructions that are conditional controls
system.cpu0.num_int_insts                     8128451                       # number of integer instructions
system.cpu0.num_fp_insts                         1778                       # number of float instructions
system.cpu0.num_int_register_reads           16203063                       # number of times the integer registers were read
system.cpu0.num_int_register_writes           6622167                       # number of times the integer registers were written
system.cpu0.num_fp_register_reads                2988                       # number of times the floating registers were read
system.cpu0.num_fp_register_writes               1416                       # number of times the floating registers were written
system.cpu0.num_cc_register_reads             5178232                       # number of times the CC registers were read
system.cpu0.num_cc_register_writes            2805254                       # number of times the CC registers were written
system.cpu0.num_mem_refs                      1868267                       # number of memory refs
system.cpu0.num_load_insts                    1203728                       # Number of load instructions
system.cpu0.num_store_insts                    664539                       # Number of store instructions
system.cpu0.num_idle_cycles              3600303791.946224                       # Number of idle cycles
system.cpu0.num_busy_cycles              21733034.053776                       # Number of busy cycles
system.cpu0.not_idle_fraction                0.006000                       # Percentage of non-idle cycles
system.cpu0.idle_fraction                    0.994000                       # Percentage of idle cycles
system.cpu0.Branches                           941577                       # Number of branches fetched
system.cpu0.op_class::No_OpClass                64791      0.78%      0.78% # Class of executed instruction
system.cpu0.op_class::IntAlu                  6317635     76.30%     77.08% # Class of executed instruction
system.cpu0.op_class::IntMult                    7065      0.09%     77.17% # Class of executed instruction
system.cpu0.op_class::IntDiv                    20907      0.25%     77.42% # Class of executed instruction
system.cpu0.op_class::FloatAdd                   1344      0.02%     77.44% # Class of executed instruction
system.cpu0.op_class::FloatCmp                      0      0.00%     77.44% # Class of executed instruction
system.cpu0.op_class::FloatCvt                      0      0.00%     77.44% # Class of executed instruction
system.cpu0.op_class::FloatMult                     0      0.00%     77.44% # Class of executed instruction
system.cpu0.op_class::FloatDiv                      0      0.00%     77.44% # Class of executed instruction
system.cpu0.op_class::FloatSqrt                     0      0.00%     77.44% # Class of executed instruction
system.cpu0.op_class::SimdAdd                       0      0.00%     77.44% # Class of executed instruction
system.cpu0.op_class::SimdAddAcc                    0      0.00%     77.44% # Class of executed instruction
system.cpu0.op_class::SimdAlu                       0      0.00%     77.44% # Class of executed instruction
system.cpu0.op_class::SimdCmp                       0      0.00%     77.44% # Class of executed instruction
system.cpu0.op_class::SimdCvt                       0      0.00%     77.44% # Class of executed instruction
system.cpu0.op_class::SimdMisc                      0      0.00%     77.44% # Class of executed instruction
system.cpu0.op_class::SimdMult                      0      0.00%     77.44% # Class of executed instruction
system.cpu0.op_class::SimdMultAcc                   0      0.00%     77.44% # Class of executed instruction
system.cpu0.op_class::SimdShift                     0      0.00%     77.44% # Class of executed instruction
system.cpu0.op_class::SimdShiftAcc                  0      0.00%     77.44% # Class of executed instruction
system.cpu0.op_class::SimdSqrt                      0      0.00%     77.44% # Class of executed instruction
system.cpu0.op_class::SimdFloatAdd                  0      0.00%     77.44% # Class of executed instruction
system.cpu0.op_class::SimdFloatAlu                  0      0.00%     77.44% # Class of executed instruction
system.cpu0.op_class::SimdFloatCmp                  0      0.00%     77.44% # Class of executed instruction
system.cpu0.op_class::SimdFloatCvt                  0      0.00%     77.44% # Class of executed instruction
system.cpu0.op_class::SimdFloatDiv                  0      0.00%     77.44% # Class of executed instruction
system.cpu0.op_class::SimdFloatMisc                 0      0.00%     77.44% # Class of executed instruction
system.cpu0.op_class::SimdFloatMult                 0      0.00%     77.44% # Class of executed instruction
system.cpu0.op_class::SimdFloatMultAcc              0      0.00%     77.44% # Class of executed instruction
system.cpu0.op_class::SimdFloatSqrt                 0      0.00%     77.44% # Class of executed instruction
system.cpu0.op_class::MemRead                 1203728     14.54%     91.97% # Class of executed instruction
system.cpu0.op_class::MemWrite                 664539      8.03%    100.00% # Class of executed instruction
system.cpu0.op_class::IprAccess                     0      0.00%    100.00% # Class of executed instruction
system.cpu0.op_class::InstPrefetch                  0      0.00%    100.00% # Class of executed instruction
system.cpu0.op_class::total                   8280009                       # Class of executed instruction
system.cpu1.apic_clk_domain.clock                8000                       # Clock period in ticks
system.cpu1.numCycles                      3623309456                       # number of cpu cycles simulated
system.cpu1.numWorkItemsStarted                     0                       # number of work items this cpu started
system.cpu1.numWorkItemsCompleted                   0                       # number of work items this cpu completed
system.cpu1.kern.inst.arm                           0                       # number of arm instructions executed
system.cpu1.kern.inst.quiesce                       0                       # number of quiesce instructions executed
system.cpu1.committedInsts                    1344538                       # Number of instructions committed
system.cpu1.committedOps                      2887858                       # Number of ops (including micro ops) committed
system.cpu1.num_int_alu_accesses              2824218                       # Number of integer alu accesses
system.cpu1.num_fp_alu_accesses                    39                       # Number of float alu accesses
system.cpu1.num_func_calls                      79288                       # number of times a function call or return occured
system.cpu1.num_conditional_control_insts       203502                       # number of instructions that are conditional controls
system.cpu1.num_int_insts                     2824218                       # number of integer instructions
system.cpu1.num_fp_insts                           39                       # number of float instructions
system.cpu1.num_int_register_reads            5748247                       # number of times the integer registers were read
system.cpu1.num_int_register_writes           2341337                       # number of times the integer registers were written
system.cpu1.num_fp_register_reads                  63                       # number of times the floating registers were read
system.cpu1.num_fp_register_writes                 31                       # number of times the floating registers were written
system.cpu1.num_cc_register_reads             1617899                       # number of times the CC registers were read
system.cpu1.num_cc_register_writes             852419                       # number of times the CC registers were written
system.cpu1.num_mem_refs                       691630                       # number of memory refs
system.cpu1.num_load_insts                     429245                       # Number of load instructions
system.cpu1.num_store_insts                    262385                       # Number of store instructions
system.cpu1.num_idle_cycles              3612958724.005751                       # Number of idle cycles
system.cpu1.num_busy_cycles              10350731.994249                       # Number of busy cycles
system.cpu1.not_idle_fraction                0.002857                       # Percentage of non-idle cycles
system.cpu1.idle_fraction                    0.997143                       # Percentage of idle cycles
system.cpu1.Branches                           308710                       # Number of branches fetched
system.cpu1.op_class::No_OpClass                53463      1.85%      1.85% # Class of executed instruction
system.cpu1.op_class::IntAlu                  2116930     73.30%     75.16% # Class of executed instruction
system.cpu1.op_class::IntMult                    6907      0.24%     75.39% # Class of executed instruction
system.cpu1.op_class::IntDiv                    18920      0.66%     76.05% # Class of executed instruction
system.cpu1.op_class::FloatAdd                     30      0.00%     76.05% # Class of executed instruction
system.cpu1.op_class::FloatCmp                      0      0.00%     76.05% # Class of executed instruction
system.cpu1.op_class::FloatCvt                      0      0.00%     76.05% # Class of executed instruction
system.cpu1.op_class::FloatMult                     0      0.00%     76.05% # Class of executed instruction
system.cpu1.op_class::FloatDiv                      0      0.00%     76.05% # Class of executed instruction
system.cpu1.op_class::FloatSqrt                     0      0.00%     76.05% # Class of executed instruction
system.cpu1.op_class::SimdAdd                       0      0.00%     76.05% # Class of executed instruction
system.cpu1.op_class::SimdAddAcc                    0      0.00%     76.05% # Class of executed instruction
system.cpu1.op_class::SimdAlu                       0      0.00%     76.05% # Class of executed instruction
system.cpu1.op_class::SimdCmp                       0      0.00%     76.05% # Class of executed instruction
system.cpu1.op_class::SimdCvt                       0      0.00%     76.05% # Class of executed instruction
system.cpu1.op_class::SimdMisc                      0      0.00%     76.05% # Class of executed instruction
system.cpu1.op_class::SimdMult                      0      0.00%     76.05% # Class of executed instruction
system.cpu1.op_class::SimdMultAcc                   0      0.00%     76.05% # Class of executed instruction
system.cpu1.op_class::SimdShift                     0      0.00%     76.05% # Class of executed instruction
system.cpu1.op_class::SimdShiftAcc                  0      0.00%     76.05% # Class of executed instruction
system.cpu1.op_class::SimdSqrt                      0      0.00%     76.05% # Class of executed instruction
system.cpu1.op_class::SimdFloatAdd                  0      0.00%     76.05% # Class of executed instruction
system.cpu1.op_class::SimdFloatAlu                  0      0.00%     76.05% # Class of executed instruction
system.cpu1.op_class::SimdFloatCmp                  0      0.00%     76.05% # Class of executed instruction
system.cpu1.op_class::SimdFloatCvt                  0      0.00%     76.05% # Class of executed instruction
system.cpu1.op_class::SimdFloatDiv                  0      0.00%     76.05% # Class of executed instruction
system.cpu1.op_class::SimdFloatMisc                 0      0.00%     76.05% # Class of executed instruction
system.cpu1.op_class::SimdFloatMult                 0      0.00%     76.05% # Class of executed instruction
system.cpu1.op_class::SimdFloatMultAcc              0      0.00%     76.05% # Class of executed instruction
system.cpu1.op_class::SimdFloatSqrt                 0      0.00%     76.05% # Class of executed instruction
system.cpu1.op_class::MemRead                  429245     14.86%     90.91% # Class of executed instruction
system.cpu1.op_class::MemWrite                 262385      9.09%    100.00% # Class of executed instruction
system.cpu1.op_class::IprAccess                     0      0.00%    100.00% # Class of executed instruction
system.cpu1.op_class::InstPrefetch                  0      0.00%    100.00% # Class of executed instruction
system.cpu1.op_class::total                   2887880                       # Class of executed instruction
system.cpu2.apic_clk_domain.clock                8000                       # Clock period in ticks
system.cpu2.numCycles                      3625971862                       # number of cpu cycles simulated
system.cpu2.numWorkItemsStarted                     0                       # number of work items this cpu started
system.cpu2.numWorkItemsCompleted                   0                       # number of work items this cpu completed
system.cpu2.kern.inst.arm                           0                       # number of arm instructions executed
system.cpu2.kern.inst.quiesce                       0                       # number of quiesce instructions executed
system.cpu2.committedInsts                  717107218                       # Number of instructions committed
system.cpu2.committedOps                   1064318802                       # Number of ops (including micro ops) committed
system.cpu2.num_int_alu_accesses            463829236                       # Number of integer alu accesses
system.cpu2.num_fp_alu_accesses             708837843                       # Number of float alu accesses
system.cpu2.num_func_calls                     897105                       # number of times a function call or return occured
system.cpu2.num_conditional_control_insts     10828759                       # number of instructions that are conditional controls
system.cpu2.num_int_insts                   463829236                       # number of integer instructions
system.cpu2.num_fp_insts                    708837843                       # number of float instructions
system.cpu2.num_int_register_reads          971741841                       # number of times the integer registers were read
system.cpu2.num_int_register_writes         343722339                       # number of times the integer registers were written
system.cpu2.num_fp_register_reads          1593836311                       # number of times the floating registers were read
system.cpu2.num_fp_register_writes          654311799                       # number of times the floating registers were written
system.cpu2.num_cc_register_reads           111615281                       # number of times the CC registers were read
system.cpu2.num_cc_register_writes          201612515                       # number of times the CC registers were written
system.cpu2.num_mem_refs                    129326996                       # number of memory refs
system.cpu2.num_load_insts                   75427975                       # Number of load instructions
system.cpu2.num_store_insts                  53899021                       # Number of store instructions
system.cpu2.num_idle_cycles              11668263.109774                       # Number of idle cycles
system.cpu2.num_busy_cycles              3614303598.890225                       # Number of busy cycles
system.cpu2.not_idle_fraction                0.996782                       # Percentage of non-idle cycles
system.cpu2.idle_fraction                    0.003218                       # Percentage of idle cycles
system.cpu2.Branches                         12016336                       # Number of branches fetched
system.cpu2.op_class::No_OpClass               313353      0.03%      0.03% # Class of executed instruction
system.cpu2.op_class::IntAlu                431288556     40.52%     40.55% # Class of executed instruction
system.cpu2.op_class::IntMult                   87811      0.01%     40.56% # Class of executed instruction
system.cpu2.op_class::IntDiv                     1811      0.00%     40.56% # Class of executed instruction
system.cpu2.op_class::FloatAdd              503316796     47.29%     87.85% # Class of executed instruction
system.cpu2.op_class::FloatCmp                      0      0.00%     87.85% # Class of executed instruction
system.cpu2.op_class::FloatCvt                      0      0.00%     87.85% # Class of executed instruction
system.cpu2.op_class::FloatMult                     0      0.00%     87.85% # Class of executed instruction
system.cpu2.op_class::FloatDiv                      0      0.00%     87.85% # Class of executed instruction
system.cpu2.op_class::FloatSqrt                     0      0.00%     87.85% # Class of executed instruction
system.cpu2.op_class::SimdAdd                       0      0.00%     87.85% # Class of executed instruction
system.cpu2.op_class::SimdAddAcc                    0      0.00%     87.85% # Class of executed instruction
system.cpu2.op_class::SimdAlu                       0      0.00%     87.85% # Class of executed instruction
system.cpu2.op_class::SimdCmp                       0      0.00%     87.85% # Class of executed instruction
system.cpu2.op_class::SimdCvt                       0      0.00%     87.85% # Class of executed instruction
system.cpu2.op_class::SimdMisc                      0      0.00%     87.85% # Class of executed instruction
system.cpu2.op_class::SimdMult                      0      0.00%     87.85% # Class of executed instruction
system.cpu2.op_class::SimdMultAcc                   0      0.00%     87.85% # Class of executed instruction
system.cpu2.op_class::SimdShift                     0      0.00%     87.85% # Class of executed instruction
system.cpu2.op_class::SimdShiftAcc                  0      0.00%     87.85% # Class of executed instruction
system.cpu2.op_class::SimdSqrt                      0      0.00%     87.85% # Class of executed instruction
system.cpu2.op_class::SimdFloatAdd                  0      0.00%     87.85% # Class of executed instruction
system.cpu2.op_class::SimdFloatAlu                  0      0.00%     87.85% # Class of executed instruction
system.cpu2.op_class::SimdFloatCmp                  0      0.00%     87.85% # Class of executed instruction
system.cpu2.op_class::SimdFloatCvt                  0      0.00%     87.85% # Class of executed instruction
system.cpu2.op_class::SimdFloatDiv                  0      0.00%     87.85% # Class of executed instruction
system.cpu2.op_class::SimdFloatMisc                 0      0.00%     87.85% # Class of executed instruction
system.cpu2.op_class::SimdFloatMult                 0      0.00%     87.85% # Class of executed instruction
system.cpu2.op_class::SimdFloatMultAcc              0      0.00%     87.85% # Class of executed instruction
system.cpu2.op_class::SimdFloatSqrt                 0      0.00%     87.85% # Class of executed instruction
system.cpu2.op_class::MemRead                75427975      7.09%     94.94% # Class of executed instruction
system.cpu2.op_class::MemWrite               53899021      5.06%    100.00% # Class of executed instruction
system.cpu2.op_class::IprAccess                     0      0.00%    100.00% # Class of executed instruction
system.cpu2.op_class::InstPrefetch                  0      0.00%    100.00% # Class of executed instruction
system.cpu2.op_class::total                1064335323                       # Class of executed instruction
system.cpu3.apic_clk_domain.clock                8000                       # Clock period in ticks
system.cpu3.numCycles                      3619150812                       # number of cpu cycles simulated
system.cpu3.numWorkItemsStarted                     0                       # number of work items this cpu started
system.cpu3.numWorkItemsCompleted                   0                       # number of work items this cpu completed
system.cpu3.kern.inst.arm                           0                       # number of arm instructions executed
system.cpu3.kern.inst.quiesce                       0                       # number of quiesce instructions executed
system.cpu3.committedInsts                    1292928                       # Number of instructions committed
system.cpu3.committedOps                      2795372                       # Number of ops (including micro ops) committed
system.cpu3.num_int_alu_accesses              2732950                       # Number of integer alu accesses
system.cpu3.num_fp_alu_accesses                     0                       # Number of float alu accesses
system.cpu3.num_func_calls                      76668                       # number of times a function call or return occured
system.cpu3.num_conditional_control_insts       197229                       # number of instructions that are conditional controls
system.cpu3.num_int_insts                     2732950                       # number of integer instructions
system.cpu3.num_fp_insts                            0                       # number of float instructions
system.cpu3.num_int_register_reads            5555270                       # number of times the integer registers were read
system.cpu3.num_int_register_writes           2271360                       # number of times the integer registers were written
system.cpu3.num_fp_register_reads                   0                       # number of times the floating registers were read
system.cpu3.num_fp_register_writes                  0                       # number of times the floating registers were written
system.cpu3.num_cc_register_reads             1582336                       # number of times the CC registers were read
system.cpu3.num_cc_register_writes             826646                       # number of times the CC registers were written
system.cpu3.num_mem_refs                       663199                       # number of memory refs
system.cpu3.num_load_insts                     412360                       # Number of load instructions
system.cpu3.num_store_insts                    250839                       # Number of store instructions
system.cpu3.num_idle_cycles              3611264849.665570                       # Number of idle cycles
system.cpu3.num_busy_cycles              7885962.334430                       # Number of busy cycles
system.cpu3.not_idle_fraction                0.002179                       # Percentage of non-idle cycles
system.cpu3.idle_fraction                    0.997821                       # Percentage of idle cycles
system.cpu3.Branches                           299073                       # Number of branches fetched
system.cpu3.op_class::No_OpClass                53705      1.92%      1.92% # Class of executed instruction
system.cpu3.op_class::IntAlu                  2053360     73.46%     75.38% # Class of executed instruction
system.cpu3.op_class::IntMult                    5497      0.20%     75.57% # Class of executed instruction
system.cpu3.op_class::IntDiv                    19614      0.70%     76.28% # Class of executed instruction
system.cpu3.op_class::FloatAdd                      0      0.00%     76.28% # Class of executed instruction
system.cpu3.op_class::FloatCmp                      0      0.00%     76.28% # Class of executed instruction
system.cpu3.op_class::FloatCvt                      0      0.00%     76.28% # Class of executed instruction
system.cpu3.op_class::FloatMult                     0      0.00%     76.28% # Class of executed instruction
system.cpu3.op_class::FloatDiv                      0      0.00%     76.28% # Class of executed instruction
system.cpu3.op_class::FloatSqrt                     0      0.00%     76.28% # Class of executed instruction
system.cpu3.op_class::SimdAdd                       0      0.00%     76.28% # Class of executed instruction
system.cpu3.op_class::SimdAddAcc                    0      0.00%     76.28% # Class of executed instruction
system.cpu3.op_class::SimdAlu                       0      0.00%     76.28% # Class of executed instruction
system.cpu3.op_class::SimdCmp                       0      0.00%     76.28% # Class of executed instruction
system.cpu3.op_class::SimdCvt                       0      0.00%     76.28% # Class of executed instruction
system.cpu3.op_class::SimdMisc                      0      0.00%     76.28% # Class of executed instruction
system.cpu3.op_class::SimdMult                      0      0.00%     76.28% # Class of executed instruction
system.cpu3.op_class::SimdMultAcc                   0      0.00%     76.28% # Class of executed instruction
system.cpu3.op_class::SimdShift                     0      0.00%     76.28% # Class of executed instruction
system.cpu3.op_class::SimdShiftAcc                  0      0.00%     76.28% # Class of executed instruction
system.cpu3.op_class::SimdSqrt                      0      0.00%     76.28% # Class of executed instruction
system.cpu3.op_class::SimdFloatAdd                  0      0.00%     76.28% # Class of executed instruction
system.cpu3.op_class::SimdFloatAlu                  0      0.00%     76.28% # Class of executed instruction
system.cpu3.op_class::SimdFloatCmp                  0      0.00%     76.28% # Class of executed instruction
system.cpu3.op_class::SimdFloatCvt                  0      0.00%     76.28% # Class of executed instruction
system.cpu3.op_class::SimdFloatDiv                  0      0.00%     76.28% # Class of executed instruction
system.cpu3.op_class::SimdFloatMisc                 0      0.00%     76.28% # Class of executed instruction
system.cpu3.op_class::SimdFloatMult                 0      0.00%     76.28% # Class of executed instruction
system.cpu3.op_class::SimdFloatMultAcc              0      0.00%     76.28% # Class of executed instruction
system.cpu3.op_class::SimdFloatSqrt                 0      0.00%     76.28% # Class of executed instruction
system.cpu3.op_class::MemRead                  412360     14.75%     91.03% # Class of executed instruction
system.cpu3.op_class::MemWrite                 250839      8.97%    100.00% # Class of executed instruction
system.cpu3.op_class::IprAccess                     0      0.00%    100.00% # Class of executed instruction
system.cpu3.op_class::InstPrefetch                  0      0.00%    100.00% # Class of executed instruction
system.cpu3.op_class::total                   2795375                       # Class of executed instruction
system.iobus.trans_dist::ReadReq                   83                       # Transaction distribution
system.iobus.trans_dist::ReadResp                  83                       # Transaction distribution
system.iobus.trans_dist::WriteReq                1877                       # Transaction distribution
system.iobus.trans_dist::WriteResp               1877                       # Transaction distribution
system.iobus.trans_dist::MessageReq                13                       # Transaction distribution
system.iobus.trans_dist::MessageResp               13                       # Transaction distribution
system.iobus.pkt_count_system.pc.south_bridge.io_apic.int_master::system.ruby.l1_cntrl0.sequencer.pio-slave-port            4                       # Packet count per connected master and slave (bytes)
system.iobus.pkt_count_system.pc.south_bridge.io_apic.int_master::system.ruby.l1_cntrl1.sequencer.pio-slave-port            2                       # Packet count per connected master and slave (bytes)
system.iobus.pkt_count_system.pc.south_bridge.io_apic.int_master::system.ruby.l1_cntrl2.sequencer.pio-slave-port            2                       # Packet count per connected master and slave (bytes)
system.iobus.pkt_count_system.pc.south_bridge.io_apic.int_master::system.ruby.l1_cntrl3.sequencer.pio-slave-port            2                       # Packet count per connected master and slave (bytes)
system.iobus.pkt_count_system.pc.south_bridge.io_apic.int_master::total           10                       # Packet count per connected master and slave (bytes)
system.iobus.pkt_count_system.ruby.l1_cntrl0.sequencer.mem-master-port::system.pc.south_bridge.io_apic.pio           14                       # Packet count per connected master and slave (bytes)
system.iobus.pkt_count_system.ruby.l1_cntrl0.sequencer.mem-master-port::system.pc.com_1.pio          162                       # Packet count per connected master and slave (bytes)
system.iobus.pkt_count_system.ruby.l1_cntrl0.sequencer.mem-master-port::system.ruby.l1_cntrl0.sequencer.pio-slave-port          932                       # Packet count per connected master and slave (bytes)
system.iobus.pkt_count_system.ruby.l1_cntrl0.sequencer.mem-master-port::system.ruby.l1_cntrl1.sequencer.pio-slave-port            2                       # Packet count per connected master and slave (bytes)
system.iobus.pkt_count_system.ruby.l1_cntrl0.sequencer.mem-master-port::system.ruby.l1_cntrl2.sequencer.pio-slave-port            2                       # Packet count per connected master and slave (bytes)
system.iobus.pkt_count_system.ruby.l1_cntrl0.sequencer.mem-master-port::system.ruby.l1_cntrl3.sequencer.pio-slave-port            2                       # Packet count per connected master and slave (bytes)
system.iobus.pkt_count_system.ruby.l1_cntrl0.sequencer.mem-master-port::total         1114                       # Packet count per connected master and slave (bytes)
system.iobus.pkt_count_system.ruby.l1_cntrl1.sequencer.mem-master-port::system.pc.south_bridge.io_apic.pio            8                       # Packet count per connected master and slave (bytes)
system.iobus.pkt_count_system.ruby.l1_cntrl1.sequencer.mem-master-port::system.ruby.l1_cntrl1.sequencer.pio-slave-port          918                       # Packet count per connected master and slave (bytes)
system.iobus.pkt_count_system.ruby.l1_cntrl1.sequencer.mem-master-port::system.ruby.l1_cntrl2.sequencer.pio-slave-port            2                       # Packet count per connected master and slave (bytes)
system.iobus.pkt_count_system.ruby.l1_cntrl1.sequencer.mem-master-port::total          928                       # Packet count per connected master and slave (bytes)
system.iobus.pkt_count_system.ruby.l1_cntrl2.sequencer.mem-master-port::system.pc.south_bridge.io_apic.pio            8                       # Packet count per connected master and slave (bytes)
system.iobus.pkt_count_system.ruby.l1_cntrl2.sequencer.mem-master-port::system.ruby.l1_cntrl0.sequencer.pio-slave-port            2                       # Packet count per connected master and slave (bytes)
system.iobus.pkt_count_system.ruby.l1_cntrl2.sequencer.mem-master-port::system.ruby.l1_cntrl1.sequencer.pio-slave-port            2                       # Packet count per connected master and slave (bytes)
system.iobus.pkt_count_system.ruby.l1_cntrl2.sequencer.mem-master-port::system.ruby.l1_cntrl2.sequencer.pio-slave-port          932                       # Packet count per connected master and slave (bytes)
system.iobus.pkt_count_system.ruby.l1_cntrl2.sequencer.mem-master-port::system.ruby.l1_cntrl3.sequencer.pio-slave-port            2                       # Packet count per connected master and slave (bytes)
system.iobus.pkt_count_system.ruby.l1_cntrl2.sequencer.mem-master-port::total          946                       # Packet count per connected master and slave (bytes)
system.iobus.pkt_count_system.ruby.l1_cntrl3.sequencer.mem-master-port::system.pc.south_bridge.io_apic.pio            6                       # Packet count per connected master and slave (bytes)
system.iobus.pkt_count_system.ruby.l1_cntrl3.sequencer.mem-master-port::system.pc.com_1.pio           22                       # Packet count per connected master and slave (bytes)
system.iobus.pkt_count_system.ruby.l1_cntrl3.sequencer.mem-master-port::system.ruby.l1_cntrl0.sequencer.pio-slave-port            2                       # Packet count per connected master and slave (bytes)
system.iobus.pkt_count_system.ruby.l1_cntrl3.sequencer.mem-master-port::system.ruby.l1_cntrl3.sequencer.pio-slave-port          918                       # Packet count per connected master and slave (bytes)
system.iobus.pkt_count_system.ruby.l1_cntrl3.sequencer.mem-master-port::total          948                       # Packet count per connected master and slave (bytes)
system.iobus.pkt_count::total                    3946                       # Packet count per connected master and slave (bytes)
system.iobus.pkt_size_system.pc.south_bridge.io_apic.int_master::system.ruby.l1_cntrl0.sequencer.pio-slave-port            8                       # Cumulative packet size per connected master and slave (bytes)
system.iobus.pkt_size_system.pc.south_bridge.io_apic.int_master::system.ruby.l1_cntrl1.sequencer.pio-slave-port            4                       # Cumulative packet size per connected master and slave (bytes)
system.iobus.pkt_size_system.pc.south_bridge.io_apic.int_master::system.ruby.l1_cntrl2.sequencer.pio-slave-port            4                       # Cumulative packet size per connected master and slave (bytes)
system.iobus.pkt_size_system.pc.south_bridge.io_apic.int_master::system.ruby.l1_cntrl3.sequencer.pio-slave-port            4                       # Cumulative packet size per connected master and slave (bytes)
system.iobus.pkt_size_system.pc.south_bridge.io_apic.int_master::total           20                       # Cumulative packet size per connected master and slave (bytes)
system.iobus.pkt_size_system.ruby.l1_cntrl0.sequencer.mem-master-port::system.pc.south_bridge.io_apic.pio           28                       # Cumulative packet size per connected master and slave (bytes)
system.iobus.pkt_size_system.ruby.l1_cntrl0.sequencer.mem-master-port::system.pc.com_1.pio           81                       # Cumulative packet size per connected master and slave (bytes)
system.iobus.pkt_size_system.ruby.l1_cntrl0.sequencer.mem-master-port::system.ruby.l1_cntrl0.sequencer.pio-slave-port         1864                       # Cumulative packet size per connected master and slave (bytes)
system.iobus.pkt_size_system.ruby.l1_cntrl0.sequencer.mem-master-port::system.ruby.l1_cntrl1.sequencer.pio-slave-port            4                       # Cumulative packet size per connected master and slave (bytes)
system.iobus.pkt_size_system.ruby.l1_cntrl0.sequencer.mem-master-port::system.ruby.l1_cntrl2.sequencer.pio-slave-port            4                       # Cumulative packet size per connected master and slave (bytes)
system.iobus.pkt_size_system.ruby.l1_cntrl0.sequencer.mem-master-port::system.ruby.l1_cntrl3.sequencer.pio-slave-port            4                       # Cumulative packet size per connected master and slave (bytes)
system.iobus.pkt_size_system.ruby.l1_cntrl0.sequencer.mem-master-port::total         1985                       # Cumulative packet size per connected master and slave (bytes)
system.iobus.pkt_size_system.ruby.l1_cntrl1.sequencer.mem-master-port::system.pc.south_bridge.io_apic.pio           16                       # Cumulative packet size per connected master and slave (bytes)
system.iobus.pkt_size_system.ruby.l1_cntrl1.sequencer.mem-master-port::system.ruby.l1_cntrl1.sequencer.pio-slave-port         1836                       # Cumulative packet size per connected master and slave (bytes)
system.iobus.pkt_size_system.ruby.l1_cntrl1.sequencer.mem-master-port::system.ruby.l1_cntrl2.sequencer.pio-slave-port            4                       # Cumulative packet size per connected master and slave (bytes)
system.iobus.pkt_size_system.ruby.l1_cntrl1.sequencer.mem-master-port::total         1856                       # Cumulative packet size per connected master and slave (bytes)
system.iobus.pkt_size_system.ruby.l1_cntrl2.sequencer.mem-master-port::system.pc.south_bridge.io_apic.pio           16                       # Cumulative packet size per connected master and slave (bytes)
system.iobus.pkt_size_system.ruby.l1_cntrl2.sequencer.mem-master-port::system.ruby.l1_cntrl0.sequencer.pio-slave-port            4                       # Cumulative packet size per connected master and slave (bytes)
system.iobus.pkt_size_system.ruby.l1_cntrl2.sequencer.mem-master-port::system.ruby.l1_cntrl1.sequencer.pio-slave-port            4                       # Cumulative packet size per connected master and slave (bytes)
system.iobus.pkt_size_system.ruby.l1_cntrl2.sequencer.mem-master-port::system.ruby.l1_cntrl2.sequencer.pio-slave-port         1864                       # Cumulative packet size per connected master and slave (bytes)
system.iobus.pkt_size_system.ruby.l1_cntrl2.sequencer.mem-master-port::system.ruby.l1_cntrl3.sequencer.pio-slave-port            4                       # Cumulative packet size per connected master and slave (bytes)
system.iobus.pkt_size_system.ruby.l1_cntrl2.sequencer.mem-master-port::total         1892                       # Cumulative packet size per connected master and slave (bytes)
system.iobus.pkt_size_system.ruby.l1_cntrl3.sequencer.mem-master-port::system.pc.south_bridge.io_apic.pio           12                       # Cumulative packet size per connected master and slave (bytes)
system.iobus.pkt_size_system.ruby.l1_cntrl3.sequencer.mem-master-port::system.pc.com_1.pio           11                       # Cumulative packet size per connected master and slave (bytes)
system.iobus.pkt_size_system.ruby.l1_cntrl3.sequencer.mem-master-port::system.ruby.l1_cntrl0.sequencer.pio-slave-port            4                       # Cumulative packet size per connected master and slave (bytes)
system.iobus.pkt_size_system.ruby.l1_cntrl3.sequencer.mem-master-port::system.ruby.l1_cntrl3.sequencer.pio-slave-port         1836                       # Cumulative packet size per connected master and slave (bytes)
system.iobus.pkt_size_system.ruby.l1_cntrl3.sequencer.mem-master-port::total         1863                       # Cumulative packet size per connected master and slave (bytes)
system.iobus.pkt_size::total                     7616                       # Cumulative packet size per connected master and slave (bytes)
system.iobus.reqLayer8.occupancy                31996                       # Layer occupancy (ticks)
system.iobus.reqLayer8.utilization                0.0                       # Layer utilization (%)
system.iobus.reqLayer12.occupancy              119500                       # Layer occupancy (ticks)
system.iobus.reqLayer12.utilization               0.0                       # Layer utilization (%)
system.iobus.reqLayer17.occupancy             1081498                       # Layer occupancy (ticks)
system.iobus.reqLayer17.utilization               0.0                       # Layer utilization (%)
system.iobus.reqLayer18.occupancy             1047000                       # Layer occupancy (ticks)
system.iobus.reqLayer18.utilization               0.0                       # Layer utilization (%)
system.iobus.reqLayer19.occupancy             1171755                       # Layer occupancy (ticks)
system.iobus.reqLayer19.utilization               0.0                       # Layer utilization (%)
system.iobus.reqLayer20.occupancy             1057500                       # Layer occupancy (ticks)
system.iobus.reqLayer20.utilization               0.0                       # Layer utilization (%)
system.iobus.respLayer0.occupancy                6500                       # Layer occupancy (ticks)
system.iobus.respLayer0.utilization               0.0                       # Layer utilization (%)
system.iobus.respLayer2.occupancy              855000                       # Layer occupancy (ticks)
system.iobus.respLayer2.utilization               0.0                       # Layer utilization (%)
system.iobus.respLayer4.occupancy              696500                       # Layer occupancy (ticks)
system.iobus.respLayer4.utilization               0.0                       # Layer utilization (%)
system.iobus.respLayer6.occupancy              711000                       # Layer occupancy (ticks)
system.iobus.respLayer6.utilization               0.0                       # Layer utilization (%)
system.iobus.respLayer8.occupancy              713500                       # Layer occupancy (ticks)
system.iobus.respLayer8.utilization               0.0                       # Layer utilization (%)
system.pc.south_bridge.ide.disks.dma_read_full_pages            0                       # Number of full page size DMA reads (not PRD).
system.pc.south_bridge.ide.disks.dma_read_bytes            0                       # Number of bytes transfered via DMA reads (not PRD).
system.pc.south_bridge.ide.disks.dma_read_txs            0                       # Number of DMA read transactions (not PRD).
system.pc.south_bridge.ide.disks.dma_write_full_pages            0                       # Number of full page size DMA writes.
system.pc.south_bridge.ide.disks.dma_write_bytes            0                       # Number of bytes transfered via DMA writes.
system.pc.south_bridge.ide.disks.dma_write_txs            0                       # Number of DMA write transactions.
system.ruby.clk_domain.clock                      500                       # Clock period in ticks
system.ruby.delayHist::bucket_size                  4                       # delay histogram for all message
system.ruby.delayHist::max_bucket                  39                       # delay histogram for all message
system.ruby.delayHist::samples              127593381                       # delay histogram for all message
system.ruby.delayHist::mean                  0.863564                       # delay histogram for all message
system.ruby.delayHist::stdev                 2.482401                       # delay histogram for all message
system.ruby.delayHist                    |   113833678     89.22%     89.22% |       16145      0.01%     89.23% |    13739642     10.77%    100.00% |         992      0.00%    100.00% |        2893      0.00%    100.00% |           4      0.00%    100.00% |          22      0.00%    100.00% |           4      0.00%    100.00% |           0      0.00%    100.00% |           1      0.00%    100.00% # delay histogram for all message
system.ruby.delayHist::total                127593381                       # delay histogram for all message
system.ruby.outstanding_req_hist_seqr::bucket_size            1                      
system.ruby.outstanding_req_hist_seqr::max_bucket            9                      
system.ruby.outstanding_req_hist_seqr::samples   1226185529                      
system.ruby.outstanding_req_hist_seqr::mean     1.000000                      
system.ruby.outstanding_req_hist_seqr::gmean     1.000000                      
system.ruby.outstanding_req_hist_seqr::stdev     0.000442                      
system.ruby.outstanding_req_hist_seqr    |           0      0.00%      0.00% |  1226185289    100.00%    100.00% |         240      0.00%    100.00% |           0      0.00%    100.00% |           0      0.00%    100.00% |           0      0.00%    100.00% |           0      0.00%    100.00% |           0      0.00%    100.00% |           0      0.00%    100.00% |           0      0.00%    100.00%
system.ruby.outstanding_req_hist_seqr::total   1226185529                      
system.ruby.latency_hist_seqr::bucket_size          512                      
system.ruby.latency_hist_seqr::max_bucket         5119                      
system.ruby.latency_hist_seqr::samples     1226185529                      
system.ruby.latency_hist_seqr::mean          1.978324                      
system.ruby.latency_hist_seqr::gmean         1.067779                      
system.ruby.latency_hist_seqr::stdev        12.775285                      
system.ruby.latency_hist_seqr            |  1226029690     99.99%     99.99% |      143397      0.01%    100.00% |       11015      0.00%    100.00% |        1344      0.00%    100.00% |          82      0.00%    100.00% |           1      0.00%    100.00% |           0      0.00%    100.00% |           0      0.00%    100.00% |           0      0.00%    100.00% |           0      0.00%    100.00%
system.ruby.latency_hist_seqr::total       1226185529                      
system.ruby.hit_latency_hist_seqr::bucket_size            1                      
[...]
system.ruby.DMA_Controller.WriteRequest::total          128                      
system.ruby.DMA_Controller.Data          |           2    100.00%    100.00% |           0      0.00%    100.00%
system.ruby.DMA_Controller.Data::total              2                      
system.ruby.DMA_Controller.Ack           |         128    100.00%    100.00% |           0      0.00%    100.00%
system.ruby.DMA_Controller.Ack::total             128                      
system.ruby.DMA_Controller.READY.ReadRequest |           2    100.00%    100.00% |           0      0.00%    100.00%
system.ruby.DMA_Controller.READY.ReadRequest::total            2                      
system.ruby.DMA_Controller.READY.WriteRequest |         128    100.00%    100.00% |           0      0.00%    100.00%
system.ruby.DMA_Controller.READY.WriteRequest::total          128                      
system.ruby.DMA_Controller.BUSY_RD.Data  |           2    100.00%    100.00% |           0      0.00%    100.00%
system.ruby.DMA_Controller.BUSY_RD.Data::total            2                      
system.ruby.DMA_Controller.BUSY_WR.Ack   |         128    100.00%    100.00% |           0      0.00%    100.00%
system.ruby.DMA_Controller.BUSY_WR.Ack::total          128                      
system.ruby.L1Cache_Controller.Load      |     3481585      3.78%      3.78% |      687941      0.75%      4.53% |    86809655     94.29%     98.81% |     1091449      1.19%    100.00%
system.ruby.L1Cache_Controller.Load::total     92070630                      
system.ruby.L1Cache_Controller.Ifetch    |    20781923      1.93%      1.93% |     3212247      0.30%      2.23% |  1048556368     97.24%     99.47% |     5732698      0.53%    100.00%
system.ruby.L1Cache_Controller.Ifetch::total   1078283236                      
system.ruby.L1Cache_Controller.Store     |     2733220      3.26%      3.26% |      509354      0.61%      3.87% |    79662844     95.14%     99.02% |      824532      0.98%    100.00%
system.ruby.L1Cache_Controller.Store::total     83729950                      
system.ruby.L1Cache_Controller.Inv       |       59563     29.61%     29.61% |       49147     24.43%     54.04% |       41963     20.86%     74.90% |       50489     25.10%    100.00%
system.ruby.L1Cache_Controller.Inv::total       201162                      
system.ruby.L1Cache_Controller.L1_Replacement |      229336      0.98%      0.98% |       50375      0.22%      1.20% |    22938930     98.46%     99.66% |       78507      0.34%    100.00%
system.ruby.L1Cache_Controller.L1_Replacement::total     23297148                      
system.ruby.L1Cache_Controller.Fwd_GETX  |        1172     31.04%     31.04% |         755     19.99%     51.03% |         622     16.47%     67.51% |        1227     32.49%    100.00%
system.ruby.L1Cache_Controller.Fwd_GETX::total         3776                      
system.ruby.L1Cache_Controller.Fwd_GETS  |        8375     43.15%     43.15% |        5822     30.00%     73.15% |        1909      9.84%     82.99% |        3302     17.01%    100.00%
system.ruby.L1Cache_Controller.Fwd_GETS::total        19408                      
system.ruby.L1Cache_Controller.Data      |         243     19.44%     19.44% |          95      7.60%     27.04% |         609     48.72%     75.76% |         303     24.24%    100.00%
system.ruby.L1Cache_Controller.Data::total         1250                      
system.ruby.L1Cache_Controller.Data_Exclusive |      124270      0.92%      0.92% |       19076      0.14%      1.07% |    13285158     98.74%     99.80% |       26848      0.20%    100.00%
system.ruby.L1Cache_Controller.Data_Exclusive::total     13455352                      
system.ruby.L1Cache_Controller.DataS_fromL1 |        5888     30.34%     30.34% |        3305     17.03%     47.37% |        2107     10.86%     58.22% |        8108     41.78%    100.00%
system.ruby.L1Cache_Controller.DataS_fromL1::total        19408                      
system.ruby.L1Cache_Controller.Data_all_Acks |      145205      1.45%      1.45% |       72425      0.73%      2.18% |     9678912     96.94%     99.12% |       87883      0.88%    100.00%
system.ruby.L1Cache_Controller.Data_all_Acks::total      9984425                      
system.ruby.L1Cache_Controller.Ack       |       11334     43.79%     43.79% |        4735     18.30%     62.09% |        4413     17.05%     79.14% |        5399     20.86%    100.00%
system.ruby.L1Cache_Controller.Ack::total        25881                      
system.ruby.L1Cache_Controller.Ack_all   |        5400     37.47%     37.47% |        3029     21.02%     58.49% |        2350     16.31%     74.79% |        3633     25.21%    100.00%
system.ruby.L1Cache_Controller.Ack_all::total        14412                      
system.ruby.L1Cache_Controller.WB_Ack    |      171603      0.74%      0.74% |       17235      0.07%      0.82% |    22885136     99.05%     99.87% |       29802      0.13%    100.00%
system.ruby.L1Cache_Controller.WB_Ack::total     23103776                      
system.ruby.L1Cache_Controller.NP.Load   |      120905      0.90%      0.90% |       13924      0.10%      1.00% |    13296699     98.81%     99.81% |       25027      0.19%    100.00%
system.ruby.L1Cache_Controller.NP.Load::total     13456555                      
system.ruby.L1Cache_Controller.NP.Ifetch |       50194     31.39%     31.39% |       28327     17.72%     49.11% |       38319     23.96%     73.07% |       43062     26.93%    100.00%
system.ruby.L1Cache_Controller.NP.Ifetch::total       159902                      
system.ruby.L1Cache_Controller.NP.Store  |       58237      0.60%      0.60% |        8601      0.09%      0.69% |     9603912     99.20%     99.89% |       10488      0.11%    100.00%
system.ruby.L1Cache_Controller.NP.Store::total      9681238                      
system.ruby.L1Cache_Controller.NP.Inv    |        9044     37.45%     37.45% |        1976      8.18%     45.63% |        9635     39.90%     85.53% |        3494     14.47%    100.00%
system.ruby.L1Cache_Controller.NP.Inv::total        24149                      
system.ruby.L1Cache_Controller.I.Load    |       14399     29.33%     29.33% |       15822     32.23%     61.55% |        2406      4.90%     66.45% |       16471     33.55%    100.00%
system.ruby.L1Cache_Controller.I.Load::total        49098                      
system.ruby.L1Cache_Controller.I.Ifetch  |       24274     28.84%     28.84% |       20531     24.39%     53.24% |       18728     22.25%     75.49% |       20630     24.51%    100.00%
system.ruby.L1Cache_Controller.I.Ifetch::total        84163                      
system.ruby.L1Cache_Controller.I.Store   |        7596     25.77%     25.77% |        7695     26.11%     51.87% |        6722     22.80%     74.68% |        7464     25.32%    100.00%
system.ruby.L1Cache_Controller.I.Store::total        29477                      
system.ruby.L1Cache_Controller.I.L1_Replacement |        5123     28.77%     28.77% |        4071     22.86%     51.63% |        5003     28.09%     79.72% |        3611     20.28%    100.00%
system.ruby.L1Cache_Controller.I.L1_Replacement::total        17808                      
system.ruby.L1Cache_Controller.S.Load    |      303754     46.29%     46.29% |      118239     18.02%     64.31% |       69282     10.56%     74.87% |      164935     25.13%    100.00%
system.ruby.L1Cache_Controller.S.Load::total       656210                      
system.ruby.L1Cache_Controller.S.Ifetch  |    20707455      1.92%      1.92% |     3163389      0.29%      2.21% |  1048499321     97.26%     99.47% |     5669004      0.53%    100.00%
system.ruby.L1Cache_Controller.S.Ifetch::total   1078039169                      
system.ruby.L1Cache_Controller.S.Store   |        5158     39.18%     39.18% |        2935     22.30%     61.48% |        1741     13.23%     74.70% |        3330     25.30%    100.00%
system.ruby.L1Cache_Controller.S.Store::total        13164                      
system.ruby.L1Cache_Controller.S.Inv     |       35982     28.79%     28.79% |       33348     26.68%     55.47% |       22313     17.85%     73.32% |       33353     26.68%    100.00%
system.ruby.L1Cache_Controller.S.Inv::total       124996                      
system.ruby.L1Cache_Controller.S.L1_Replacement |       52610     29.97%     29.97% |       29069     16.56%     46.52% |       48791     27.79%     74.31% |       45094     25.69%    100.00%
system.ruby.L1Cache_Controller.S.L1_Replacement::total       175564                      
system.ruby.L1Cache_Controller.E.Load    |      498045      0.81%      0.81% |      115874      0.19%      0.99% |    60974314     98.67%     99.66% |      208080      0.34%    100.00%
system.ruby.L1Cache_Controller.E.Load::total     61796313                      
system.ruby.L1Cache_Controller.E.Store   |       78125      1.87%      1.87% |        4580      0.11%      1.98% |     4082184     97.79%     99.77% |        9668      0.23%    100.00%
system.ruby.L1Cache_Controller.E.Store::total      4174557                      
system.ruby.L1Cache_Controller.E.Inv     |        4762     31.19%     31.19% |        4155     27.22%     58.41% |        1853     12.14%     70.54% |        4497     29.46%    100.00%
system.ruby.L1Cache_Controller.E.Inv::total        15267                      
system.ruby.L1Cache_Controller.E.L1_Replacement |       37797      0.41%      0.41% |        6884      0.07%      0.48% |     9200352     99.39%     99.87% |       11661      0.13%    100.00%
system.ruby.L1Cache_Controller.E.L1_Replacement::total      9256694                      
system.ruby.L1Cache_Controller.E.Fwd_GETX |         644     50.31%     50.31% |         131     10.23%     60.55% |          86      6.72%     67.27% |         419     32.73%    100.00%
system.ruby.L1Cache_Controller.E.Fwd_GETX::total         1280                      
system.ruby.L1Cache_Controller.E.Fwd_GETS |        3146     42.87%     42.87% |        2983     40.65%     83.52% |         549      7.48%     91.01% |         660      8.99%    100.00%
system.ruby.L1Cache_Controller.E.Fwd_GETS::total         7338                      
system.ruby.L1Cache_Controller.M.Load    |     2544482     15.79%     15.79% |      424082      2.63%     18.42% |    12466954     77.37%     95.80% |      676936      4.20%    100.00%
system.ruby.L1Cache_Controller.M.Load::total     16112454                      
system.ruby.L1Cache_Controller.M.Store   |     2584104      3.70%      3.70% |      485543      0.70%      4.40% |    65968285     94.47%     98.86% |      793582      1.14%    100.00%
system.ruby.L1Cache_Controller.M.Store::total     69831514                      
system.ruby.L1Cache_Controller.M.Inv     |        9774     26.60%     26.60% |        9667     26.31%     52.90% |        8162     22.21%     75.11% |        9145     24.89%    100.00%
system.ruby.L1Cache_Controller.M.Inv::total        36748                      
system.ruby.L1Cache_Controller.M.L1_Replacement |      133806      0.97%      0.97% |       10351      0.07%      1.04% |    13684784     98.83%     99.87% |       18141      0.13%    100.00%
system.ruby.L1Cache_Controller.M.L1_Replacement::total     13847082                      
system.ruby.L1Cache_Controller.M.Fwd_GETX |         528     21.15%     21.15% |         624     25.00%     46.15% |         536     21.47%     67.63% |         808     32.37%    100.00%
system.ruby.L1Cache_Controller.M.Fwd_GETX::total         2496                      
system.ruby.L1Cache_Controller.M.Fwd_GETS |        5229     43.32%     43.32% |        2839     23.52%     66.84% |        1360     11.27%     78.11% |        2642     21.89%    100.00%
system.ruby.L1Cache_Controller.M.Fwd_GETS::total        12070                      
system.ruby.L1Cache_Controller.IS.Data_Exclusive |      124270      0.92%      0.92% |       19076      0.14%      1.07% |    13285158     98.74%     99.80% |       26848      0.20%    100.00%
system.ruby.L1Cache_Controller.IS.Data_Exclusive::total     13455352                      
system.ruby.L1Cache_Controller.IS.DataS_fromL1 |        5888     30.34%     30.34% |        3305     17.03%     47.37% |        2107     10.86%     58.22% |        8108     41.78%    100.00%
system.ruby.L1Cache_Controller.IS.DataS_fromL1::total        19408                      
system.ruby.L1Cache_Controller.IS.Data_all_Acks |       79614     28.95%     28.95% |       56223     20.45%     49.40% |       68887     25.05%     74.46% |       70234     25.54%    100.00%
system.ruby.L1Cache_Controller.IS.Data_all_Acks::total       274958                      
system.ruby.L1Cache_Controller.IM.Data   |         243     19.44%     19.44% |          95      7.60%     27.04% |         609     48.72%     75.76% |         303     24.24%    100.00%
system.ruby.L1Cache_Controller.IM.Data::total         1250                      
system.ruby.L1Cache_Controller.IM.Data_all_Acks |       65591      0.68%      0.68% |       16202      0.17%      0.84% |     9610025     98.98%     99.82% |       17649      0.18%    100.00%
system.ruby.L1Cache_Controller.IM.Data_all_Acks::total      9709467                      
system.ruby.L1Cache_Controller.SM.Inv    |           1     50.00%     50.00% |           1     50.00%    100.00% |           0      0.00%    100.00% |           0      0.00%    100.00%
system.ruby.L1Cache_Controller.SM.Inv::total            2                      
system.ruby.L1Cache_Controller.SM.Ack    |       11334     43.79%     43.79% |        4735     18.30%     62.09% |        4413     17.05%     79.14% |        5399     20.86%    100.00%
system.ruby.L1Cache_Controller.SM.Ack::total        25881                      
system.ruby.L1Cache_Controller.SM.Ack_all |        5400     37.47%     37.47% |        3029     21.02%     58.49% |        2350     16.31%     74.79% |        3633     25.21%    100.00%
system.ruby.L1Cache_Controller.SM.Ack_all::total        14412                      
system.ruby.L1Cache_Controller.M_I.Ifetch |           0      0.00%      0.00% |           0      0.00%      0.00% |           0      0.00%      0.00% |           2    100.00%    100.00%
system.ruby.L1Cache_Controller.M_I.Ifetch::total            2                      
system.ruby.L1Cache_Controller.M_I.WB_Ack |      171603      0.74%      0.74% |       17235      0.07%      0.82% |    22885136     99.05%     99.87% |       29802      0.13%    100.00%
system.ruby.L1Cache_Controller.M_I.WB_Ack::total     23103776                      
system.ruby.L2Cache_Controller.L1_GET_INSTR       244071      0.00%      0.00%
system.ruby.L2Cache_Controller.L1_GETS       13505899      0.00%      0.00%
system.ruby.L2Cache_Controller.L1_GETX        9710723      0.00%      0.00%
system.ruby.L2Cache_Controller.L1_UPGRADE        13164      0.00%      0.00%
system.ruby.L2Cache_Controller.L1_PUTX       23103776      0.00%      0.00%
system.ruby.L2Cache_Controller.L2_Replacement      2720363      0.00%      0.00%
system.ruby.L2Cache_Controller.L2_Replacement_clean      3267054      0.00%      0.00%
system.ruby.L2Cache_Controller.Mem_Data       6005099      0.00%      0.00%
system.ruby.L2Cache_Controller.Mem_Ack        5987419      0.00%      0.00%
system.ruby.L2Cache_Controller.WB_Data          48818      0.00%      0.00%
system.ruby.L2Cache_Controller.WB_Data_clean         7338      0.00%      0.00%
system.ruby.L2Cache_Controller.Ack              71336      0.00%      0.00%
system.ruby.L2Cache_Controller.Ack_all          65947      0.00%      0.00%
system.ruby.L2Cache_Controller.Unblock          19408      0.00%      0.00%
system.ruby.L2Cache_Controller.Exclusive_Unblock     23179231      0.00%      0.00%
system.ruby.L2Cache_Controller.MEM_Inv              4      0.00%      0.00%
system.ruby.L2Cache_Controller.NP.L1_GET_INSTR        47811      0.00%      0.00%
system.ruby.L2Cache_Controller.NP.L1_GETS      3236591      0.00%      0.00%
system.ruby.L2Cache_Controller.NP.L1_GETX      2720697      0.00%      0.00%
system.ruby.L2Cache_Controller.SS.L1_GET_INSTR       196237      0.00%      0.00%
system.ruby.L2Cache_Controller.SS.L1_GETS        30869      0.00%      0.00%
system.ruby.L2Cache_Controller.SS.L1_GETX         1250      0.00%      0.00%
system.ruby.L2Cache_Controller.SS.L1_UPGRADE        13162      0.00%      0.00%
system.ruby.L2Cache_Controller.SS.L2_Replacement         1069      0.00%      0.00%
system.ruby.L2Cache_Controller.SS.L2_Replacement_clean        49611      0.00%      0.00%
system.ruby.L2Cache_Controller.M.L1_GET_INSTR           17      0.00%      0.00%
system.ruby.L2Cache_Controller.M.L1_GETS     10218773      0.00%      0.00%
system.ruby.L2Cache_Controller.M.L1_GETX      6984994      0.00%      0.00%
system.ruby.L2Cache_Controller.M.L2_Replacement      2715802      0.00%      0.00%
system.ruby.L2Cache_Controller.M.L2_Replacement_clean      3168922      0.00%      0.00%
system.ruby.L2Cache_Controller.MT.L1_GETS        19408      0.00%      0.00%
system.ruby.L2Cache_Controller.MT.L1_GETX         3776      0.00%      0.00%
system.ruby.L2Cache_Controller.MT.L1_PUTX     23103776      0.00%      0.00%
system.ruby.L2Cache_Controller.MT.L2_Replacement         3492      0.00%      0.00%
system.ruby.L2Cache_Controller.MT.L2_Replacement_clean        48521      0.00%      0.00%
system.ruby.L2Cache_Controller.MT.MEM_Inv            2      0.00%      0.00%
system.ruby.L2Cache_Controller.M_I.L1_GET_INSTR            6      0.00%      0.00%
system.ruby.L2Cache_Controller.M_I.L1_GETS            1      0.00%      0.00%
system.ruby.L2Cache_Controller.M_I.L1_GETX            1      0.00%      0.00%
system.ruby.L2Cache_Controller.M_I.Mem_Ack      5987419      0.00%      0.00%
system.ruby.L2Cache_Controller.MT_I.WB_Data         3152      0.00%      0.00%
system.ruby.L2Cache_Controller.MT_I.Ack_all          342      0.00%      0.00%
system.ruby.L2Cache_Controller.MT_I.MEM_Inv            2      0.00%      0.00%
system.ruby.L2Cache_Controller.MCT_I.WB_Data        33596      0.00%      0.00%
system.ruby.L2Cache_Controller.MCT_I.Ack_all        14925      0.00%      0.00%
system.ruby.L2Cache_Controller.I_I.Ack          70059      0.00%      0.00%
system.ruby.L2Cache_Controller.I_I.Ack_all        49611      0.00%      0.00%
system.ruby.L2Cache_Controller.S_I.Ack           1277      0.00%      0.00%
system.ruby.L2Cache_Controller.S_I.Ack_all         1069      0.00%      0.00%
system.ruby.L2Cache_Controller.ISS.L1_GETS           12      0.00%      0.00%
system.ruby.L2Cache_Controller.ISS.Mem_Data      3236579      0.00%      0.00%
system.ruby.L2Cache_Controller.IS.Mem_Data        47823      0.00%      0.00%
system.ruby.L2Cache_Controller.IM.Mem_Data      2720697      0.00%      0.00%
system.ruby.L2Cache_Controller.SS_MB.L1_GETS           73      0.00%      0.00%
system.ruby.L2Cache_Controller.SS_MB.L1_GETX            1      0.00%      0.00%
system.ruby.L2Cache_Controller.SS_MB.L1_UPGRADE            2      0.00%      0.00%
system.ruby.L2Cache_Controller.SS_MB.Exclusive_Unblock        14412      0.00%      0.00%
system.ruby.L2Cache_Controller.MT_MB.L1_GETS          169      0.00%      0.00%
system.ruby.L2Cache_Controller.MT_MB.L1_GETX            3      0.00%      0.00%
system.ruby.L2Cache_Controller.MT_MB.Exclusive_Unblock     23164819      0.00%      0.00%
system.ruby.L2Cache_Controller.MT_IIB.L1_GETS            3      0.00%      0.00%
system.ruby.L2Cache_Controller.MT_IIB.L1_GETX            1      0.00%      0.00%
system.ruby.L2Cache_Controller.MT_IIB.WB_Data        12048      0.00%      0.00%
system.ruby.L2Cache_Controller.MT_IIB.WB_Data_clean         7313      0.00%      0.00%
system.ruby.L2Cache_Controller.MT_IIB.Unblock           47      0.00%      0.00%
system.ruby.L2Cache_Controller.MT_IB.WB_Data           22      0.00%      0.00%
system.ruby.L2Cache_Controller.MT_IB.WB_Data_clean           25      0.00%      0.00%
system.ruby.L2Cache_Controller.MT_SB.Unblock        19361      0.00%      0.00%

---------- End Simulation Statistics   ----------
