
---------- Begin Simulation Statistics ----------
sim_seconds                                  3.604586                       # Number of seconds simulated
sim_ticks                                3604586115500                       # Number of ticks simulated
final_tick                               55286355185501                       # Number of ticks from beginning of simulation (restored from checkpoints and never reset)
sim_freq                                 1000000000000                       # Frequency of simulated ticks
host_inst_rate                                 148482                       # Simulator instruction rate (inst/s)
host_op_rate                                   252855                       # Simulator op (including micro ops) rate (op/s)
host_tick_rate                              264930467                       # Simulator tick rate (ticks/s)
host_mem_usage                                1882196                       # Number of bytes of host memory used
host_seconds                                 13605.78                       # Real time elapsed on the host
sim_insts                                  2020214983                       # Number of instructions simulated
sim_ops                                    3440285958                       # Number of ops (including micro ops) simulated
system.voltage_domain.voltage                       1                       # Voltage in Volts
system.clk_domain.clock                          1000                       # Clock period in ticks
system.mem_ctrls.bytes_read::ruby.dir_cntrl0      1760192                       # Number of bytes read from this memory
system.mem_ctrls.bytes_read::total            1760192                       # Number of bytes read from this memory
system.mem_ctrls.bytes_written::ruby.dir_cntrl0       923584                       # Number of bytes written to this memory
system.mem_ctrls.bytes_written::total          923584                       # Number of bytes written to this memory
system.mem_ctrls.num_reads::ruby.dir_cntrl0        27503                       # Number of read requests responded to by this memory
system.mem_ctrls.num_reads::total               27503                       # Number of read requests responded to by this memory
system.mem_ctrls.num_writes::ruby.dir_cntrl0        14431                       # Number of write requests responded to by this memory
system.mem_ctrls.num_writes::total              14431                       # Number of write requests responded to by this memory
system.mem_ctrls.bw_read::ruby.dir_cntrl0       488320                       # Total read bandwidth from this memory (bytes/s)
system.mem_ctrls.bw_read::total                488320                       # Total read bandwidth from this memory (bytes/s)
system.mem_ctrls.bw_write::ruby.dir_cntrl0       256225                       # Write bandwidth from this memory (bytes/s)
system.mem_ctrls.bw_write::total               256225                       # Write bandwidth from this memory (bytes/s)
system.mem_ctrls.bw_total::ruby.dir_cntrl0       744545                       # Total bandwidth to/from this memory (bytes/s)
system.mem_ctrls.bw_total::total               744545                       # Total bandwidth to/from this memory (bytes/s)
system.mem_ctrls.readReqs                       27503                       # Number of read requests accepted
system.mem_ctrls.writeReqs                      14431                       # Number of write requests accepted
system.mem_ctrls.readBursts                     27503                       # Number of DRAM read bursts, including those serviced by the write queue
system.mem_ctrls.writeBursts                    14431                       # Number of DRAM write bursts, including those merged in the write queue
system.mem_ctrls.bytesReadDRAM                1757760                       # Total number of bytes read from DRAM
system.mem_ctrls.bytesReadWrQ                    2432                       # Total number of bytes read from write queue
system.mem_ctrls.bytesWritten                  923328                       # Total number of bytes written to DRAM
system.mem_ctrls.bytesReadSys                 1760192                       # Total read bytes from the system interface side
system.mem_ctrls.bytesWrittenSys               923584                       # Total written bytes from the system interface side
system.mem_ctrls.servicedByWrQ                     38                       # Number of DRAM read bursts serviced by the write queue
system.mem_ctrls.mergedWrBursts                     0                       # Number of DRAM write bursts merged with an existing one
system.mem_ctrls.neitherReadNorWriteReqs            0                       # Number of requests that are neither read nor write
system.mem_ctrls.perBankRdBursts::0              2173                       # Per bank write bursts
system.mem_ctrls.perBankRdBursts::1              1929                       # Per bank write bursts
system.mem_ctrls.perBankRdBursts::2              1314                       # Per bank write bursts
system.mem_ctrls.perBankRdBursts::3              1476                       # Per bank write bursts
system.mem_ctrls.perBankRdBursts::4              1805                       # Per bank write bursts
system.mem_ctrls.perBankRdBursts::5              1758                       # Per bank write bursts
system.mem_ctrls.perBankRdBursts::6              1505                       # Per bank write bursts
system.mem_ctrls.perBankRdBursts::7              1604                       # Per bank write bursts
system.mem_ctrls.perBankRdBursts::8              1705                       # Per bank write bursts
system.mem_ctrls.perBankRdBursts::9              1715                       # Per bank write bursts
system.mem_ctrls.perBankRdBursts::10             1216                       # Per bank write bursts
system.mem_ctrls.perBankRdBursts::11             1200                       # Per bank write bursts
system.mem_ctrls.perBankRdBursts::12             2139                       # Per bank write bursts
system.mem_ctrls.perBankRdBursts::13             1853                       # Per bank write bursts
system.mem_ctrls.perBankRdBursts::14             2066                       # Per bank write bursts
system.mem_ctrls.perBankRdBursts::15             2007                       # Per bank write bursts
system.mem_ctrls.perBankWrBursts::0               749                       # Per bank write bursts
system.mem_ctrls.perBankWrBursts::1               883                       # Per bank write bursts
system.mem_ctrls.perBankWrBursts::2               579                       # Per bank write bursts
system.mem_ctrls.perBankWrBursts::3               592                       # Per bank write bursts
system.mem_ctrls.perBankWrBursts::4              1040                       # Per bank write bursts
system.mem_ctrls.perBankWrBursts::5               816                       # Per bank write bursts
system.mem_ctrls.perBankWrBursts::6               901                       # Per bank write bursts
system.mem_ctrls.perBankWrBursts::7               868                       # Per bank write bursts
system.mem_ctrls.perBankWrBursts::8               927                       # Per bank write bursts
system.mem_ctrls.perBankWrBursts::9               979                       # Per bank write bursts
system.mem_ctrls.perBankWrBursts::10              558                       # Per bank write bursts
system.mem_ctrls.perBankWrBursts::11              790                       # Per bank write bursts
system.mem_ctrls.perBankWrBursts::12             1209                       # Per bank write bursts
system.mem_ctrls.perBankWrBursts::13             1066                       # Per bank write bursts
system.mem_ctrls.perBankWrBursts::14             1310                       # Per bank write bursts
system.mem_ctrls.perBankWrBursts::15             1160                       # Per bank write bursts
system.mem_ctrls.numRdRetry                         0                       # Number of times read queue was full causing retry
system.mem_ctrls.numWrRetry                         0                       # Number of times write queue was full causing retry
system.mem_ctrls.totGap                  3604586282500                       # Total gap between requests
system.mem_ctrls.readPktSize::0                     0                       # Read request sizes (log2)
system.mem_ctrls.readPktSize::1                     0                       # Read request sizes (log2)
system.mem_ctrls.readPktSize::2                     0                       # Read request sizes (log2)
system.mem_ctrls.readPktSize::3                     0                       # Read request sizes (log2)
system.mem_ctrls.readPktSize::4                     0                       # Read request sizes (log2)
system.mem_ctrls.readPktSize::5                     0                       # Read request sizes (log2)
system.mem_ctrls.readPktSize::6                 27503                       # Read request sizes (log2)
system.mem_ctrls.writePktSize::0                    0                       # Write request sizes (log2)
system.mem_ctrls.writePktSize::1                    0                       # Write request sizes (log2)
system.mem_ctrls.writePktSize::2                    0                       # Write request sizes (log2)
system.mem_ctrls.writePktSize::3                    0                       # Write request sizes (log2)
system.mem_ctrls.writePktSize::4                    0                       # Write request sizes (log2)
system.mem_ctrls.writePktSize::5                    0                       # Write request sizes (log2)
system.mem_ctrls.writePktSize::6                14431                       # Write request sizes (log2)
system.mem_ctrls.rdQLenPdf::0                   27103                       # What read queue length does an incoming req see
system.mem_ctrls.rdQLenPdf::1                     360                       # What read queue length does an incoming req see
system.mem_ctrls.rdQLenPdf::2                       2                       # What read queue length does an incoming req see
system.mem_ctrls.rdQLenPdf::3                       0                       # What read queue length does an incoming req see
system.mem_ctrls.rdQLenPdf::4                       0                       # What read queue length does an incoming req see
system.mem_ctrls.rdQLenPdf::5                       0                       # What read queue length does an incoming req see
system.mem_ctrls.rdQLenPdf::6                       0                       # What read queue length does an incoming req see
system.mem_ctrls.rdQLenPdf::7                       0                       # What read queue length does an incoming req see
system.mem_ctrls.rdQLenPdf::8                       0                       # What read queue length does an incoming req see
system.mem_ctrls.rdQLenPdf::9                       0                       # What read queue length does an incoming req see
system.mem_ctrls.rdQLenPdf::10                      0                       # What read queue length does an incoming req see
system.mem_ctrls.rdQLenPdf::11                      0                       # What read queue length does an incoming req see
system.mem_ctrls.rdQLenPdf::12                      0                       # What read queue length does an incoming req see
system.mem_ctrls.rdQLenPdf::13                      0                       # What read queue length does an incoming req see
system.mem_ctrls.rdQLenPdf::14                      0                       # What read queue length does an incoming req see
system.mem_ctrls.rdQLenPdf::15                      0                       # What read queue length does an incoming req see
system.mem_ctrls.rdQLenPdf::16                      0                       # What read queue length does an incoming req see
system.mem_ctrls.rdQLenPdf::17                      0                       # What read queue length does an incoming req see
system.mem_ctrls.rdQLenPdf::18                      0                       # What read queue length does an incoming req see
system.mem_ctrls.rdQLenPdf::19                      0                       # What read queue length does an incoming req see
system.mem_ctrls.rdQLenPdf::20                      0                       # What read queue length does an incoming req see
system.mem_ctrls.rdQLenPdf::21                      0                       # What read queue length does an incoming req see
system.mem_ctrls.rdQLenPdf::22                      0                       # What read queue length does an incoming req see
system.mem_ctrls.rdQLenPdf::23                      0                       # What read queue length does an incoming req see
system.mem_ctrls.rdQLenPdf::24                      0                       # What read queue length does an incoming req see
system.mem_ctrls.rdQLenPdf::25                      0                       # What read queue length does an incoming req see
system.mem_ctrls.rdQLenPdf::26                      0                       # What read queue length does an incoming req see
system.mem_ctrls.rdQLenPdf::27                      0                       # What read queue length does an incoming req see
system.mem_ctrls.rdQLenPdf::28                      0                       # What read queue length does an incoming req see
system.mem_ctrls.rdQLenPdf::29                      0                       # What read queue length does an incoming req see
system.mem_ctrls.rdQLenPdf::30                      0                       # What read queue length does an incoming req see
system.mem_ctrls.rdQLenPdf::31                      0                       # What read queue length does an incoming req see
system.mem_ctrls.wrQLenPdf::0                       0                       # What write queue length does an incoming req see
system.mem_ctrls.wrQLenPdf::1                       0                       # What write queue length does an incoming req see
system.mem_ctrls.wrQLenPdf::2                       0                       # What write queue length does an incoming req see
system.mem_ctrls.wrQLenPdf::3                       0                       # What write queue length does an incoming req see
system.mem_ctrls.wrQLenPdf::4                       0                       # What write queue length does an incoming req see
system.mem_ctrls.wrQLenPdf::5                       0                       # What write queue length does an incoming req see
system.mem_ctrls.wrQLenPdf::6                       0                       # What write queue length does an incoming req see
system.mem_ctrls.wrQLenPdf::7                       0                       # What write queue length does an incoming req see
system.mem_ctrls.wrQLenPdf::8                       0                       # What write queue length does an incoming req see
system.mem_ctrls.wrQLenPdf::9                       0                       # What write queue length does an incoming req see
system.mem_ctrls.wrQLenPdf::10                      0                       # What write queue length does an incoming req see
system.mem_ctrls.wrQLenPdf::11                      0                       # What write queue length does an incoming req see
system.mem_ctrls.wrQLenPdf::12                      0                       # What write queue length does an incoming req see
system.mem_ctrls.wrQLenPdf::13                      0                       # What write queue length does an incoming req see
system.mem_ctrls.wrQLenPdf::14                      0                       # What write queue length does an incoming req see
system.mem_ctrls.wrQLenPdf::15                    471                       # What write queue length does an incoming req see
system.mem_ctrls.wrQLenPdf::16                    535                       # What write queue length does an incoming req see
system.mem_ctrls.wrQLenPdf::17                    728                       # What write queue length does an incoming req see
system.mem_ctrls.wrQLenPdf::18                    834                       # What write queue length does an incoming req see
system.mem_ctrls.wrQLenPdf::19                    796                       # What write queue length does an incoming req see
system.mem_ctrls.wrQLenPdf::20                    856                       # What write queue length does an incoming req see
system.mem_ctrls.wrQLenPdf::21                    833                       # What write queue length does an incoming req see
system.mem_ctrls.wrQLenPdf::22                    902                       # What write queue length does an incoming req see
system.mem_ctrls.wrQLenPdf::23                    842                       # What write queue length does an incoming req see
system.mem_ctrls.wrQLenPdf::24                    913                       # What write queue length does an incoming req see
system.mem_ctrls.wrQLenPdf::25                    853                       # What write queue length does an incoming req see
system.mem_ctrls.wrQLenPdf::26                    855                       # What write queue length does an incoming req see
system.mem_ctrls.wrQLenPdf::27                    828                       # What write queue length does an incoming req see
system.mem_ctrls.wrQLenPdf::28                    855                       # What write queue length does an incoming req see
system.mem_ctrls.wrQLenPdf::29                    818                       # What write queue length does an incoming req see
system.mem_ctrls.wrQLenPdf::30                    818                       # What write queue length does an incoming req see
system.mem_ctrls.wrQLenPdf::31                    799                       # What write queue length does an incoming req see
system.mem_ctrls.wrQLenPdf::32                    799                       # What write queue length does an incoming req see
system.mem_ctrls.wrQLenPdf::33                     10                       # What write queue length does an incoming req see
system.mem_ctrls.wrQLenPdf::34                     12                       # What write queue length does an incoming req see
system.mem_ctrls.wrQLenPdf::35                     10                       # What write queue length does an incoming req see
system.mem_ctrls.wrQLenPdf::36                     11                       # What write queue length does an incoming req see
system.mem_ctrls.wrQLenPdf::37                      9                       # What write queue length does an incoming req see
system.mem_ctrls.wrQLenPdf::38                      7                       # What write queue length does an incoming req see
system.mem_ctrls.wrQLenPdf::39                      6                       # What write queue length does an incoming req see
system.mem_ctrls.wrQLenPdf::40                      7                       # What write queue length does an incoming req see
system.mem_ctrls.wrQLenPdf::41                      6                       # What write queue length does an incoming req see
system.mem_ctrls.wrQLenPdf::42                      6                       # What write queue length does an incoming req see
system.mem_ctrls.wrQLenPdf::43                      5                       # What write queue length does an incoming req see
system.mem_ctrls.wrQLenPdf::44                      4                       # What write queue length does an incoming req see
system.mem_ctrls.wrQLenPdf::45                      2                       # What write queue length does an incoming req see
system.mem_ctrls.wrQLenPdf::46                      1                       # What write queue length does an incoming req see
system.mem_ctrls.wrQLenPdf::47                      0                       # What write queue length does an incoming req see
system.mem_ctrls.wrQLenPdf::48                      0                       # What write queue length does an incoming req see
system.mem_ctrls.wrQLenPdf::49                      0                       # What write queue length does an incoming req see
system.mem_ctrls.wrQLenPdf::50                      0                       # What write queue length does an incoming req see
system.mem_ctrls.wrQLenPdf::51                      0                       # What write queue length does an incoming req see
system.mem_ctrls.wrQLenPdf::52                      0                       # What write queue length does an incoming req see
system.mem_ctrls.wrQLenPdf::53                      0                       # What write queue length does an incoming req see
system.mem_ctrls.wrQLenPdf::54                      0                       # What write queue length does an incoming req see
system.mem_ctrls.wrQLenPdf::55                      0                       # What write queue length does an incoming req see
system.mem_ctrls.wrQLenPdf::56                      0                       # What write queue length does an incoming req see
system.mem_ctrls.wrQLenPdf::57                      0                       # What write queue length does an incoming req see
system.mem_ctrls.wrQLenPdf::58                      0                       # What write queue length does an incoming req see
system.mem_ctrls.wrQLenPdf::59                      0                       # What write queue length does an incoming req see
system.mem_ctrls.wrQLenPdf::60                      0                       # What write queue length does an incoming req see
system.mem_ctrls.wrQLenPdf::61                      0                       # What write queue length does an incoming req see
system.mem_ctrls.wrQLenPdf::62                      0                       # What write queue length does an incoming req see
system.mem_ctrls.wrQLenPdf::63                      0                       # What write queue length does an incoming req see
system.mem_ctrls.bytesPerActivate::samples        15522                       # Bytes accessed per row activation
system.mem_ctrls.bytesPerActivate::mean    172.736503                       # Bytes accessed per row activation
system.mem_ctrls.bytesPerActivate::gmean   110.934868                       # Bytes accessed per row activation
system.mem_ctrls.bytesPerActivate::stdev   232.096738                       # Bytes accessed per row activation
system.mem_ctrls.bytesPerActivate::0-127         8921     57.47%     57.47% # Bytes accessed per row activation
system.mem_ctrls.bytesPerActivate::128-255         4071     26.23%     83.70% # Bytes accessed per row activation
system.mem_ctrls.bytesPerActivate::256-383          938      6.04%     89.74% # Bytes accessed per row activation
system.mem_ctrls.bytesPerActivate::384-511          357      2.30%     92.04% # Bytes accessed per row activation
system.mem_ctrls.bytesPerActivate::512-639          162      1.04%     93.09% # Bytes accessed per row activation
system.mem_ctrls.bytesPerActivate::640-767          129      0.83%     93.92% # Bytes accessed per row activation
system.mem_ctrls.bytesPerActivate::768-895          102      0.66%     94.58% # Bytes accessed per row activation
system.mem_ctrls.bytesPerActivate::896-1023           77      0.50%     95.07% # Bytes accessed per row activation
system.mem_ctrls.bytesPerActivate::1024-1151          765      4.93%    100.00% # Bytes accessed per row activation
system.mem_ctrls.bytesPerActivate::total        15522                       # Bytes accessed per row activation
system.mem_ctrls.rdPerTurnAround::samples          785                       # Reads before turning the bus around for writes
system.mem_ctrls.rdPerTurnAround::mean      35.117197                       # Reads before turning the bus around for writes
system.mem_ctrls.rdPerTurnAround::stdev     42.980495                       # Reads before turning the bus around for writes
system.mem_ctrls.rdPerTurnAround::0-15            305     38.85%     38.85% # Reads before turning the bus around for writes
system.mem_ctrls.rdPerTurnAround::16-31           156     19.87%     58.73% # Reads before turning the bus around for writes
system.mem_ctrls.rdPerTurnAround::32-47           132     16.82%     75.54% # Reads before turning the bus around for writes
system.mem_ctrls.rdPerTurnAround::48-63            75      9.55%     85.10% # Reads before turning the bus around for writes
system.mem_ctrls.rdPerTurnAround::64-79            34      4.33%     89.43% # Reads before turning the bus around for writes
system.mem_ctrls.rdPerTurnAround::80-95            23      2.93%     92.36% # Reads before turning the bus around for writes
system.mem_ctrls.rdPerTurnAround::96-111           13      1.66%     94.01% # Reads before turning the bus around for writes
system.mem_ctrls.rdPerTurnAround::112-127           16      2.04%     96.05% # Reads before turning the bus around for writes
system.mem_ctrls.rdPerTurnAround::128-143           10      1.27%     97.32% # Reads before turning the bus around for writes
system.mem_ctrls.rdPerTurnAround::144-159            5      0.64%     97.96% # Reads before turning the bus around for writes
system.mem_ctrls.rdPerTurnAround::160-175            2      0.25%     98.22% # Reads before turning the bus around for writes
system.mem_ctrls.rdPerTurnAround::176-191            3      0.38%     98.60% # Reads before turning the bus around for writes
system.mem_ctrls.rdPerTurnAround::192-207            2      0.25%     98.85% # Reads before turning the bus around for writes
system.mem_ctrls.rdPerTurnAround::208-223            2      0.25%     99.11% # Reads before turning the bus around for writes
system.mem_ctrls.rdPerTurnAround::224-239            2      0.25%     99.36% # Reads before turning the bus around for writes
system.mem_ctrls.rdPerTurnAround::256-271            1      0.13%     99.49% # Reads before turning the bus around for writes
system.mem_ctrls.rdPerTurnAround::272-287            2      0.25%     99.75% # Reads before turning the bus around for writes
system.mem_ctrls.rdPerTurnAround::320-335            2      0.25%    100.00% # Reads before turning the bus around for writes
system.mem_ctrls.rdPerTurnAround::total           785                       # Reads before turning the bus around for writes
system.mem_ctrls.wrPerTurnAround::samples          785                       # Writes before turning the bus around for reads
system.mem_ctrls.wrPerTurnAround::mean      18.378344                       # Writes before turning the bus around for reads
system.mem_ctrls.wrPerTurnAround::gmean     18.078171                       # Writes before turning the bus around for reads
system.mem_ctrls.wrPerTurnAround::stdev      4.307479                       # Writes before turning the bus around for reads
system.mem_ctrls.wrPerTurnAround::16-17           299     38.09%     38.09% # Writes before turning the bus around for reads
system.mem_ctrls.wrPerTurnAround::18-19           378     48.15%     86.24% # Writes before turning the bus around for reads
system.mem_ctrls.wrPerTurnAround::20-21            36      4.59%     90.83% # Writes before turning the bus around for reads
system.mem_ctrls.wrPerTurnAround::22-23            33      4.20%     95.03% # Writes before turning the bus around for reads
system.mem_ctrls.wrPerTurnAround::24-25             9      1.15%     96.18% # Writes before turning the bus around for reads
system.mem_ctrls.wrPerTurnAround::26-27             5      0.64%     96.82% # Writes before turning the bus around for reads
system.mem_ctrls.wrPerTurnAround::28-29             6      0.76%     97.58% # Writes before turning the bus around for reads
system.mem_ctrls.wrPerTurnAround::30-31             2      0.25%     97.83% # Writes before turning the bus around for reads
system.mem_ctrls.wrPerTurnAround::32-33             2      0.25%     98.09% # Writes before turning the bus around for reads
system.mem_ctrls.wrPerTurnAround::34-35            11      1.40%     99.49% # Writes before turning the bus around for reads
system.mem_ctrls.wrPerTurnAround::36-37             1      0.13%     99.62% # Writes before turning the bus around for reads
system.mem_ctrls.wrPerTurnAround::64-65             2      0.25%     99.87% # Writes before turning the bus around for reads
system.mem_ctrls.wrPerTurnAround::70-71             1      0.13%    100.00% # Writes before turning the bus around for reads
system.mem_ctrls.wrPerTurnAround::total           785                       # Writes before turning the bus around for reads
system.mem_ctrls.totQLat                    250292247                       # Total ticks spent queuing
system.mem_ctrls.totMemAccLat               765260997                       # Total ticks spent from burst creation until serviced by the DRAM
system.mem_ctrls.totBusLat                  137325000                       # Total ticks spent in databus transfers
system.mem_ctrls.avgQLat                      9113.13                       # Average queueing delay per DRAM burst
system.mem_ctrls.avgBusLat                    5000.00                       # Average bus latency per DRAM burst
system.mem_ctrls.avgMemAccLat                27863.13                       # Average memory access latency per DRAM burst
system.mem_ctrls.avgRdBW                         0.49                       # Average DRAM read bandwidth in MiByte/s
system.mem_ctrls.avgWrBW                         0.26                       # Average achieved write bandwidth in MiByte/s
system.mem_ctrls.avgRdBWSys                      0.49                       # Average system read bandwidth in MiByte/s
system.mem_ctrls.avgWrBWSys                      0.26                       # Average system write bandwidth in MiByte/s
system.mem_ctrls.peakBW                      12800.00                       # Theoretical peak bandwidth in MiByte/s
system.mem_ctrls.busUtil                         0.01                       # Data bus utilization in percentage
system.mem_ctrls.busUtilRead                     0.00                       # Data bus utilization in percentage for reads
system.mem_ctrls.busUtilWrite                    0.00                       # Data bus utilization in percentage for writes
system.mem_ctrls.avgRdQLen                       1.00                       # Average read queue length when enqueuing
system.mem_ctrls.avgWrQLen                      23.67                       # Average write queue length when enqueuing
system.mem_ctrls.readRowHits                    19890                       # Number of row buffer hits during reads
system.mem_ctrls.writeRowHits                    6481                       # Number of row buffer hits during writes
system.mem_ctrls.readRowHitRate                 72.42                       # Row buffer hit rate for reads
system.mem_ctrls.writeRowHitRate                44.91                       # Row buffer hit rate for writes
system.mem_ctrls.avgGap                   85958560.65                       # Average gap between requests
system.mem_ctrls.pageHitRate                    62.94                       # Row buffer hit rate, read and write combined
system.mem_ctrls_0.actEnergy                 77134680                       # Energy for activate commands per rank (pJ)
system.mem_ctrls_0.preEnergy                 42087375                       # Energy for precharge commands per rank (pJ)
system.mem_ctrls_0.readEnergy               176358000                       # Energy for read commands per rank (pJ)
system.mem_ctrls_0.writeEnergy               44012160                       # Energy for write commands per rank (pJ)
system.mem_ctrls_0.refreshEnergy         235669755360                       # Energy for refresh commands per rank (pJ)
system.mem_ctrls_0.actBackEnergy          83298505815                       # Energy for active background per rank (pJ)
system.mem_ctrls_0.preBackEnergy         2091848271750                       # Energy for precharge background per rank (pJ)
system.mem_ctrls_0.totalEnergy           2411156125140                       # Total energy per rank (pJ)
system.mem_ctrls_0.averagePower            668.244364                       # Core power per rank (mW)
system.mem_ctrls_0.memoryStateTime::IDLE 3479002377500                       # Time in different power states
system.mem_ctrls_0.memoryStateTime::REF  120365180000                       # Time in different power states
system.mem_ctrls_0.memoryStateTime::PRE_PDN            0                       # Time in different power states
system.mem_ctrls_0.memoryStateTime::ACT    5220678000                       # Time in different power states
system.mem_ctrls_0.memoryStateTime::ACT_PDN            0                       # Time in different power states
system.mem_ctrls_1.actEnergy                 76650840                       # Energy for activate commands per rank (pJ)
system.mem_ctrls_1.preEnergy                 41823375                       # Energy for precharge commands per rank (pJ)
system.mem_ctrls_1.readEnergy               174649800                       # Energy for read commands per rank (pJ)
system.mem_ctrls_1.writeEnergy               53699760                       # Energy for write commands per rank (pJ)
system.mem_ctrls_1.refreshEnergy         235669755360                       # Energy for refresh commands per rank (pJ)
system.mem_ctrls_1.actBackEnergy          83291953095                       # Energy for active background per rank (pJ)
system.mem_ctrls_1.preBackEnergy         2091854019750                       # Energy for precharge background per rank (pJ)
system.mem_ctrls_1.totalEnergy           2411162551980                       # Total energy per rank (pJ)
system.mem_ctrls_1.averagePower            668.246145                       # Core power per rank (mW)
system.mem_ctrls_1.memoryStateTime::IDLE 3478808728750                       # Time in different power states
system.mem_ctrls_1.memoryStateTime::REF  120365180000                       # Time in different power states
system.mem_ctrls_1.memoryStateTime::PRE_PDN            0                       # Time in different power states
system.mem_ctrls_1.memoryStateTime::ACT    5415656500                       # Time in different power states
system.mem_ctrls_1.memoryStateTime::ACT_PDN            0                       # Time in different power states
system.cpu_voltage_domain.voltage                   1                       # Voltage in Volts
system.cpu_clk_domain.clock                       500                       # Clock period in ticks
system.cpu0.apic_clk_domain.clock                8000                       # Clock period in ticks
system.cpu0.numCycles                      7210282991                       # number of cpu cycles simulated
system.cpu0.numWorkItemsStarted                     0                       # number of work items this cpu started
system.cpu0.numWorkItemsCompleted                   0                       # number of work items this cpu completed
system.cpu0.kern.inst.arm                           0                       # number of arm instructions executed
system.cpu0.kern.inst.quiesce                       0                       # number of quiesce instructions executed
system.cpu0.committedInsts                    3010156                       # Number of instructions committed
system.cpu0.committedOps                      6323259                       # Number of ops (including micro ops) committed
system.cpu0.num_int_alu_accesses              6216967                       # Number of integer alu accesses
system.cpu0.num_fp_alu_accesses                  1837                       # Number of float alu accesses
system.cpu0.num_func_calls                     181708                       # number of times a function call or return occured
system.cpu0.num_conditional_control_insts       417917                       # number of instructions that are conditional controls
system.cpu0.num_int_insts                     6216967                       # number of integer instructions
system.cpu0.num_fp_insts                         1837                       # number of float instructions
system.cpu0.num_int_register_reads           12592687                       # number of times the integer registers were read
system.cpu0.num_int_register_writes           5093756                       # number of times the integer registers were written
system.cpu0.num_fp_register_reads                3081                       # number of times the floating registers were read
system.cpu0.num_fp_register_writes               1457                       # number of times the floating registers were written
system.cpu0.num_cc_register_reads             3324249                       # number of times the CC registers were read
system.cpu0.num_cc_register_writes            1956829                       # number of times the CC registers were written
system.cpu0.num_mem_refs                      1501905                       # number of memory refs
system.cpu0.num_load_insts                     926679                       # Number of load instructions
system.cpu0.num_store_insts                    575226                       # Number of store instructions
system.cpu0.num_idle_cycles              7196776830.348162                       # Number of idle cycles
system.cpu0.num_busy_cycles              13506160.651838                       # Number of busy cycles
system.cpu0.not_idle_fraction                0.001873                       # Percentage of non-idle cycles
system.cpu0.idle_fraction                    0.998127                       # Percentage of idle cycles
system.cpu0.Branches                           654891                       # Number of branches fetched
system.cpu0.op_class::No_OpClass                72145      1.14%      1.14% # Class of executed instruction
system.cpu0.op_class::IntAlu                  4715787     74.58%     75.72% # Class of executed instruction
system.cpu0.op_class::IntMult                   12394      0.20%     75.91% # Class of executed instruction
system.cpu0.op_class::IntDiv                    19751      0.31%     76.23% # Class of executed instruction
system.cpu0.op_class::FloatAdd                   1366      0.02%     76.25% # Class of executed instruction
system.cpu0.op_class::FloatCmp                      0      0.00%     76.25% # Class of executed instruction
system.cpu0.op_class::FloatCvt                      0      0.00%     76.25% # Class of executed instruction
system.cpu0.op_class::FloatMult                     0      0.00%     76.25% # Class of executed instruction
system.cpu0.op_class::FloatDiv                      0      0.00%     76.25% # Class of executed instruction
system.cpu0.op_class::FloatSqrt                     0      0.00%     76.25% # Class of executed instruction
system.cpu0.op_class::SimdAdd                       0      0.00%     76.25% # Class of executed instruction
system.cpu0.op_class::SimdAddAcc                    0      0.00%     76.25% # Class of executed instruction
system.cpu0.op_class::SimdAlu                       0      0.00%     76.25% # Class of executed instruction
system.cpu0.op_class::SimdCmp                       0      0.00%     76.25% # Class of executed instruction
system.cpu0.op_class::SimdCvt                       0      0.00%     76.25% # Class of executed instruction
system.cpu0.op_class::SimdMisc                      0      0.00%     76.25% # Class of executed instruction
system.cpu0.op_class::SimdMult                      0      0.00%     76.25% # Class of executed instruction
system.cpu0.op_class::SimdMultAcc                   0      0.00%     76.25% # Class of executed instruction
system.cpu0.op_class::SimdShift                     0      0.00%     76.25% # Class of executed instruction
system.cpu0.op_class::SimdShiftAcc                  0      0.00%     76.25% # Class of executed instruction
system.cpu0.op_class::SimdSqrt                      0      0.00%     76.25% # Class of executed instruction
system.cpu0.op_class::SimdFloatAdd                  0      0.00%     76.25% # Class of executed instruction
system.cpu0.op_class::SimdFloatAlu                  0      0.00%     76.25% # Class of executed instruction
system.cpu0.op_class::SimdFloatCmp                  0      0.00%     76.25% # Class of executed instruction
system.cpu0.op_class::SimdFloatCvt                  0      0.00%     76.25% # Class of executed instruction
system.cpu0.op_class::SimdFloatDiv                  0      0.00%     76.25% # Class of executed instruction
system.cpu0.op_class::SimdFloatMisc                 0      0.00%     76.25% # Class of executed instruction
system.cpu0.op_class::SimdFloatMult                 0      0.00%     76.25% # Class of executed instruction
system.cpu0.op_class::SimdFloatMultAcc              0      0.00%     76.25% # Class of executed instruction
system.cpu0.op_class::SimdFloatSqrt                 0      0.00%     76.25% # Class of executed instruction
system.cpu0.op_class::MemRead                  926679     14.65%     90.90% # Class of executed instruction
system.cpu0.op_class::MemWrite                 575226      9.10%    100.00% # Class of executed instruction
system.cpu0.op_class::IprAccess                     0      0.00%    100.00% # Class of executed instruction
system.cpu0.op_class::InstPrefetch                  0      0.00%    100.00% # Class of executed instruction
system.cpu0.op_class::total                   6323348                       # Class of executed instruction
system.cpu1.apic_clk_domain.clock                8000                       # Clock period in ticks
system.cpu1.numCycles                      7210147416                       # number of cpu cycles simulated
system.cpu1.numWorkItemsStarted                     0                       # number of work items this cpu started
system.cpu1.numWorkItemsCompleted                   0                       # number of work items this cpu completed
system.cpu1.kern.inst.arm                           0                       # number of arm instructions executed
system.cpu1.kern.inst.quiesce                       0                       # number of quiesce instructions executed
system.cpu1.committedInsts                   19192949                       # Number of instructions committed
system.cpu1.committedOps                     33823221                       # Number of ops (including micro ops) committed
system.cpu1.num_int_alu_accesses             28439501                       # Number of integer alu accesses
system.cpu1.num_fp_alu_accesses               8399451                       # Number of float alu accesses
system.cpu1.num_func_calls                     579132                       # number of times a function call or return occured
system.cpu1.num_conditional_control_insts      2026423                       # number of instructions that are conditional controls
system.cpu1.num_int_insts                    28439501                       # number of integer instructions
system.cpu1.num_fp_insts                      8399451                       # number of float instructions
system.cpu1.num_int_register_reads           54825271                       # number of times the integer registers were read
system.cpu1.num_int_register_writes          21603988                       # number of times the integer registers were written
system.cpu1.num_fp_register_reads            14064524                       # number of times the floating registers were read
system.cpu1.num_fp_register_writes            7474376                       # number of times the floating registers were written
system.cpu1.num_cc_register_reads            13760517                       # number of times the CC registers were read
system.cpu1.num_cc_register_writes           10187266                       # number of times the CC registers were written
system.cpu1.num_mem_refs                      7580457                       # number of memory refs
system.cpu1.num_load_insts                    5657374                       # Number of load instructions
system.cpu1.num_store_insts                   1923083                       # Number of store instructions
system.cpu1.num_idle_cycles              7138588070.477862                       # Number of idle cycles
system.cpu1.num_busy_cycles              71559345.522137                       # Number of busy cycles
system.cpu1.not_idle_fraction                0.009925                       # Percentage of non-idle cycles
system.cpu1.idle_fraction                    0.990075                       # Percentage of idle cycles
system.cpu1.Branches                          2754194                       # Number of branches fetched
system.cpu1.op_class::No_OpClass               112148      0.33%      0.33% # Class of executed instruction
system.cpu1.op_class::IntAlu                 22260114     65.81%     66.14% # Class of executed instruction
system.cpu1.op_class::IntMult                  215538      0.64%     66.78% # Class of executed instruction
system.cpu1.op_class::IntDiv                    36712      0.11%     66.89% # Class of executed instruction
system.cpu1.op_class::FloatAdd                3618309     10.70%     77.59% # Class of executed instruction
system.cpu1.op_class::FloatCmp                      0      0.00%     77.59% # Class of executed instruction
system.cpu1.op_class::FloatCvt                      0      0.00%     77.59% # Class of executed instruction
system.cpu1.op_class::FloatMult                     0      0.00%     77.59% # Class of executed instruction
system.cpu1.op_class::FloatDiv                      0      0.00%     77.59% # Class of executed instruction
system.cpu1.op_class::FloatSqrt                     0      0.00%     77.59% # Class of executed instruction
system.cpu1.op_class::SimdAdd                       0      0.00%     77.59% # Class of executed instruction
system.cpu1.op_class::SimdAddAcc                    0      0.00%     77.59% # Class of executed instruction
system.cpu1.op_class::SimdAlu                       0      0.00%     77.59% # Class of executed instruction
system.cpu1.op_class::SimdCmp                       0      0.00%     77.59% # Class of executed instruction
system.cpu1.op_class::SimdCvt                       0      0.00%     77.59% # Class of executed instruction
system.cpu1.op_class::SimdMisc                      0      0.00%     77.59% # Class of executed instruction
system.cpu1.op_class::SimdMult                      0      0.00%     77.59% # Class of executed instruction
system.cpu1.op_class::SimdMultAcc                   0      0.00%     77.59% # Class of executed instruction
system.cpu1.op_class::SimdShift                     0      0.00%     77.59% # Class of executed instruction
system.cpu1.op_class::SimdShiftAcc                  0      0.00%     77.59% # Class of executed instruction
system.cpu1.op_class::SimdSqrt                      0      0.00%     77.59% # Class of executed instruction
system.cpu1.op_class::SimdFloatAdd                  0      0.00%     77.59% # Class of executed instruction
system.cpu1.op_class::SimdFloatAlu                  0      0.00%     77.59% # Class of executed instruction
system.cpu1.op_class::SimdFloatCmp                  0      0.00%     77.59% # Class of executed instruction
system.cpu1.op_class::SimdFloatCvt                  0      0.00%     77.59% # Class of executed instruction
system.cpu1.op_class::SimdFloatDiv                  0      0.00%     77.59% # Class of executed instruction
system.cpu1.op_class::SimdFloatMisc                 0      0.00%     77.59% # Class of executed instruction
system.cpu1.op_class::SimdFloatMult                 0      0.00%     77.59% # Class of executed instruction
system.cpu1.op_class::SimdFloatMultAcc              0      0.00%     77.59% # Class of executed instruction
system.cpu1.op_class::SimdFloatSqrt                 0      0.00%     77.59% # Class of executed instruction
system.cpu1.op_class::MemRead                 5657374     16.73%     94.31% # Class of executed instruction
system.cpu1.op_class::MemWrite                1923083      5.69%    100.00% # Class of executed instruction
system.cpu1.op_class::IprAccess                     0      0.00%    100.00% # Class of executed instruction
system.cpu1.op_class::InstPrefetch                  0      0.00%    100.00% # Class of executed instruction
system.cpu1.op_class::total                  33823278                       # Class of executed instruction
system.cpu2.apic_clk_domain.clock                8000                       # Clock period in ticks
system.cpu2.numCycles                      7210734018                       # number of cpu cycles simulated
system.cpu2.numWorkItemsStarted                     0                       # number of work items this cpu started
system.cpu2.numWorkItemsCompleted                   0                       # number of work items this cpu completed
system.cpu2.kern.inst.arm                           0                       # number of arm instructions executed
system.cpu2.kern.inst.quiesce                       0                       # number of quiesce instructions executed
system.cpu2.committedInsts                 1994025970                       # Number of instructions committed
system.cpu2.committedOps                   3391978647                       # Number of ops (including micro ops) committed
system.cpu2.num_int_alu_accesses           2756640282                       # Number of integer alu accesses
system.cpu2.num_fp_alu_accesses            1010088517                       # Number of float alu accesses
system.cpu2.num_func_calls                   49907569                       # number of times a function call or return occured
system.cpu2.num_conditional_control_insts    199774216                       # number of instructions that are conditional controls
system.cpu2.num_int_insts                  2756640282                       # number of integer instructions
system.cpu2.num_fp_insts                   1010088517                       # number of float instructions
system.cpu2.num_int_register_reads         5216443300                       # number of times the integer registers were read
system.cpu2.num_int_register_writes        2051850354                       # number of times the integer registers were written
system.cpu2.num_fp_register_reads          1701898740                       # number of times the floating registers were read
system.cpu2.num_fp_register_writes          899765659                       # number of times the floating registers were written
system.cpu2.num_cc_register_reads          1288200588                       # number of times the CC registers were read
system.cpu2.num_cc_register_writes         1039082067                       # number of times the CC registers were written
system.cpu2.num_mem_refs                    738025807                       # number of memory refs
system.cpu2.num_load_insts                  571678369                       # Number of load instructions
system.cpu2.num_store_insts                 166347438                       # Number of store instructions
system.cpu2.num_idle_cycles              64748131.924656                       # Number of idle cycles
system.cpu2.num_busy_cycles              7145985886.075344                       # Number of busy cycles
system.cpu2.not_idle_fraction                0.991021                       # Percentage of non-idle cycles
system.cpu2.idle_fraction                    0.008979                       # Percentage of idle cycles
system.cpu2.Branches                        261086110                       # Number of branches fetched
system.cpu2.op_class::No_OpClass              1505835      0.04%      0.04% # Class of executed instruction
system.cpu2.op_class::IntAlu               2188577022     64.52%     64.57% # Class of executed instruction
system.cpu2.op_class::IntMult                24039806      0.71%     65.28% # Class of executed instruction
system.cpu2.op_class::IntDiv                   210966      0.01%     65.28% # Class of executed instruction
system.cpu2.op_class::FloatAdd              439619365     12.96%     78.24% # Class of executed instruction
system.cpu2.op_class::FloatCmp                      0      0.00%     78.24% # Class of executed instruction
system.cpu2.op_class::FloatCvt                      0      0.00%     78.24% # Class of executed instruction
system.cpu2.op_class::FloatMult                     0      0.00%     78.24% # Class of executed instruction
system.cpu2.op_class::FloatDiv                      0      0.00%     78.24% # Class of executed instruction
system.cpu2.op_class::FloatSqrt                     0      0.00%     78.24% # Class of executed instruction
system.cpu2.op_class::SimdAdd                       0      0.00%     78.24% # Class of executed instruction
system.cpu2.op_class::SimdAddAcc                    0      0.00%     78.24% # Class of executed instruction
system.cpu2.op_class::SimdAlu                       0      0.00%     78.24% # Class of executed instruction
system.cpu2.op_class::SimdCmp                       0      0.00%     78.24% # Class of executed instruction
system.cpu2.op_class::SimdCvt                       0      0.00%     78.24% # Class of executed instruction
system.cpu2.op_class::SimdMisc                      0      0.00%     78.24% # Class of executed instruction
system.cpu2.op_class::SimdMult                      0      0.00%     78.24% # Class of executed instruction
system.cpu2.op_class::SimdMultAcc                   0      0.00%     78.24% # Class of executed instruction
system.cpu2.op_class::SimdShift                     0      0.00%     78.24% # Class of executed instruction
system.cpu2.op_class::SimdShiftAcc                  0      0.00%     78.24% # Class of executed instruction
system.cpu2.op_class::SimdSqrt                      0      0.00%     78.24% # Class of executed instruction
system.cpu2.op_class::SimdFloatAdd                  0      0.00%     78.24% # Class of executed instruction
system.cpu2.op_class::SimdFloatAlu                  0      0.00%     78.24% # Class of executed instruction
system.cpu2.op_class::SimdFloatCmp                  0      0.00%     78.24% # Class of executed instruction
system.cpu2.op_class::SimdFloatCvt                  0      0.00%     78.24% # Class of executed instruction
system.cpu2.op_class::SimdFloatDiv                  0      0.00%     78.24% # Class of executed instruction
system.cpu2.op_class::SimdFloatMisc                 0      0.00%     78.24% # Class of executed instruction
system.cpu2.op_class::SimdFloatMult                 0      0.00%     78.24% # Class of executed instruction
system.cpu2.op_class::SimdFloatMultAcc              0      0.00%     78.24% # Class of executed instruction
system.cpu2.op_class::SimdFloatSqrt                 0      0.00%     78.24% # Class of executed instruction
system.cpu2.op_class::MemRead               571678369     16.85%     95.10% # Class of executed instruction
system.cpu2.op_class::MemWrite              166347438      4.90%    100.00% # Class of executed instruction
system.cpu2.op_class::IprAccess                     0      0.00%    100.00% # Class of executed instruction
system.cpu2.op_class::InstPrefetch                  0      0.00%    100.00% # Class of executed instruction
system.cpu2.op_class::total                3391978801                       # Class of executed instruction
system.cpu3.apic_clk_domain.clock                8000                       # Clock period in ticks
system.cpu3.numCycles                      7204233956                       # number of cpu cycles simulated
system.cpu3.numWorkItemsStarted                     0                       # number of work items this cpu started
system.cpu3.numWorkItemsCompleted                   0                       # number of work items this cpu completed
system.cpu3.kern.inst.arm                           0                       # number of arm instructions executed
system.cpu3.kern.inst.quiesce                       0                       # number of quiesce instructions executed
system.cpu3.committedInsts                    2593841                       # Number of instructions committed
system.cpu3.committedOps                      5595561                       # Number of ops (including micro ops) committed
system.cpu3.num_int_alu_accesses              5471737                       # Number of integer alu accesses
system.cpu3.num_fp_alu_accesses                     0                       # Number of float alu accesses
system.cpu3.num_func_calls                     153507                       # number of times a function call or return occured
system.cpu3.num_conditional_control_insts       395869                       # number of instructions that are conditional controls
system.cpu3.num_int_insts                     5471737                       # number of integer instructions
system.cpu3.num_fp_insts                            0                       # number of float instructions
system.cpu3.num_int_register_reads           11113187                       # number of times the integer registers were read
system.cpu3.num_int_register_writes           4543292                       # number of times the integer registers were written
system.cpu3.num_fp_register_reads                   0                       # number of times the floating registers were read
system.cpu3.num_fp_register_writes                  0                       # number of times the floating registers were written
system.cpu3.num_cc_register_reads             3164959                       # number of times the CC registers were read
system.cpu3.num_cc_register_writes            1663350                       # number of times the CC registers were written
system.cpu3.num_mem_refs                      1328760                       # number of memory refs
system.cpu3.num_load_insts                     827885                       # Number of load instructions
system.cpu3.num_store_insts                    500875                       # Number of store instructions
system.cpu3.num_idle_cycles              7193201122.663042                       # Number of idle cycles
system.cpu3.num_busy_cycles              11032833.336958                       # Number of busy cycles
system.cpu3.not_idle_fraction                0.001531                       # Percentage of non-idle cycles
system.cpu3.idle_fraction                    0.998469                       # Percentage of idle cycles
system.cpu3.Branches                           599161                       # Number of branches fetched
system.cpu3.op_class::No_OpClass               105571      1.89%      1.89% # Class of executed instruction
system.cpu3.op_class::IntAlu                  4112643     73.50%     75.38% # Class of executed instruction
system.cpu3.op_class::IntMult                   11247      0.20%     75.59% # Class of executed instruction
system.cpu3.op_class::IntDiv                    37346      0.67%     76.25% # Class of executed instruction
system.cpu3.op_class::FloatAdd                      0      0.00%     76.25% # Class of executed instruction
system.cpu3.op_class::FloatCmp                      0      0.00%     76.25% # Class of executed instruction
system.cpu3.op_class::FloatCvt                      0      0.00%     76.25% # Class of executed instruction
system.cpu3.op_class::FloatMult                     0      0.00%     76.25% # Class of executed instruction
system.cpu3.op_class::FloatDiv                      0      0.00%     76.25% # Class of executed instruction
system.cpu3.op_class::FloatSqrt                     0      0.00%     76.25% # Class of executed instruction
system.cpu3.op_class::SimdAdd                       0      0.00%     76.25% # Class of executed instruction
system.cpu3.op_class::SimdAddAcc                    0      0.00%     76.25% # Class of executed instruction
system.cpu3.op_class::SimdAlu                       0      0.00%     76.25% # Class of executed instruction
system.cpu3.op_class::SimdCmp                       0      0.00%     76.25% # Class of executed instruction
system.cpu3.op_class::SimdCvt                       0      0.00%     76.25% # Class of executed instruction
system.cpu3.op_class::SimdMisc                      0      0.00%     76.25% # Class of executed instruction
system.cpu3.op_class::SimdMult                      0      0.00%     76.25% # Class of executed instruction
system.cpu3.op_class::SimdMultAcc                   0      0.00%     76.25% # Class of executed instruction
system.cpu3.op_class::SimdShift                     0      0.00%     76.25% # Class of executed instruction
system.cpu3.op_class::SimdShiftAcc                  0      0.00%     76.25% # Class of executed instruction
system.cpu3.op_class::SimdSqrt                      0      0.00%     76.25% # Class of executed instruction
system.cpu3.op_class::SimdFloatAdd                  0      0.00%     76.25% # Class of executed instruction
system.cpu3.op_class::SimdFloatAlu                  0      0.00%     76.25% # Class of executed instruction
system.cpu3.op_class::SimdFloatCmp                  0      0.00%     76.25% # Class of executed instruction
system.cpu3.op_class::SimdFloatCvt                  0      0.00%     76.25% # Class of executed instruction
system.cpu3.op_class::SimdFloatDiv                  0      0.00%     76.25% # Class of executed instruction
system.cpu3.op_class::SimdFloatMisc                 0      0.00%     76.25% # Class of executed instruction
system.cpu3.op_class::SimdFloatMult                 0      0.00%     76.25% # Class of executed instruction
system.cpu3.op_class::SimdFloatMultAcc              0      0.00%     76.25% # Class of executed instruction
system.cpu3.op_class::SimdFloatSqrt                 0      0.00%     76.25% # Class of executed instruction
system.cpu3.op_class::MemRead                  827885     14.80%     91.05% # Class of executed instruction
system.cpu3.op_class::MemWrite                 500875      8.95%    100.00% # Class of executed instruction
system.cpu3.op_class::IprAccess                     0      0.00%    100.00% # Class of executed instruction
system.cpu3.op_class::InstPrefetch                  0      0.00%    100.00% # Class of executed instruction
system.cpu3.op_class::total                   5595567                       # Class of executed instruction
system.iobus.trans_dist::ReadReq                  116                       # Transaction distribution
system.iobus.trans_dist::ReadResp                 116                       # Transaction distribution
system.iobus.trans_dist::WriteReq                3742                       # Transaction distribution
system.iobus.trans_dist::WriteResp               3742                       # Transaction distribution
system.iobus.trans_dist::MessageReq                19                       # Transaction distribution
system.iobus.trans_dist::MessageResp               19                       # Transaction distribution
system.iobus.pkt_count_system.pc.south_bridge.io_apic.int_master::system.ruby.l1_cntrl0.sequencer.pio-slave-port            6                       # Packet count per connected master and slave (bytes)
system.iobus.pkt_count_system.pc.south_bridge.io_apic.int_master::system.ruby.l1_cntrl1.sequencer.pio-slave-port            4                       # Packet count per connected master and slave (bytes)
system.iobus.pkt_count_system.pc.south_bridge.io_apic.int_master::system.ruby.l1_cntrl2.sequencer.pio-slave-port            4                       # Packet count per connected master and slave (bytes)
system.iobus.pkt_count_system.pc.south_bridge.io_apic.int_master::system.ruby.l1_cntrl3.sequencer.pio-slave-port            4                       # Packet count per connected master and slave (bytes)
system.iobus.pkt_count_system.pc.south_bridge.io_apic.int_master::total           18                       # Packet count per connected master and slave (bytes)
system.iobus.pkt_count_system.ruby.l1_cntrl0.sequencer.mem-master-port::system.pc.south_bridge.ide.pio           46                       # Packet count per connected master and slave (bytes)
system.iobus.pkt_count_system.ruby.l1_cntrl0.sequencer.mem-master-port::system.pc.south_bridge.io_apic.pio           14                       # Packet count per connected master and slave (bytes)
system.iobus.pkt_count_system.ruby.l1_cntrl0.sequencer.mem-master-port::system.pc.com_1.pio          162                       # Packet count per connected master and slave (bytes)
system.iobus.pkt_count_system.ruby.l1_cntrl0.sequencer.mem-master-port::system.ruby.l1_cntrl0.sequencer.pio-slave-port         1828                       # Packet count per connected master and slave (bytes)
system.iobus.pkt_count_system.ruby.l1_cntrl0.sequencer.mem-master-port::system.ruby.l1_cntrl1.sequencer.pio-slave-port            2                       # Packet count per connected master and slave (bytes)
system.iobus.pkt_count_system.ruby.l1_cntrl0.sequencer.mem-master-port::system.ruby.l1_cntrl3.sequencer.pio-slave-port            2                       # Packet count per connected master and slave (bytes)
system.iobus.pkt_count_system.ruby.l1_cntrl0.sequencer.mem-master-port::total         2054                       # Packet count per connected master and slave (bytes)
system.iobus.pkt_count_system.ruby.l1_cntrl1.sequencer.mem-master-port::system.pc.south_bridge.ide.pio          114                       # Packet count per connected master and slave (bytes)
system.iobus.pkt_count_system.ruby.l1_cntrl1.sequencer.mem-master-port::system.pc.south_bridge.io_apic.pio            8                       # Packet count per connected master and slave (bytes)
system.iobus.pkt_count_system.ruby.l1_cntrl1.sequencer.mem-master-port::system.ruby.l1_cntrl1.sequencer.pio-slave-port         1824                       # Packet count per connected master and slave (bytes)
system.iobus.pkt_count_system.ruby.l1_cntrl1.sequencer.mem-master-port::system.ruby.l1_cntrl2.sequencer.pio-slave-port            2                       # Packet count per connected master and slave (bytes)
system.iobus.pkt_count_system.ruby.l1_cntrl1.sequencer.mem-master-port::total         1948                       # Packet count per connected master and slave (bytes)
system.iobus.pkt_count_system.ruby.l1_cntrl2.sequencer.mem-master-port::system.pc.south_bridge.ide.pio           12                       # Packet count per connected master and slave (bytes)
system.iobus.pkt_count_system.ruby.l1_cntrl2.sequencer.mem-master-port::system.pc.south_bridge.io_apic.pio            8                       # Packet count per connected master and slave (bytes)
system.iobus.pkt_count_system.ruby.l1_cntrl2.sequencer.mem-master-port::system.ruby.l1_cntrl0.sequencer.pio-slave-port            4                       # Packet count per connected master and slave (bytes)
system.iobus.pkt_count_system.ruby.l1_cntrl2.sequencer.mem-master-port::system.ruby.l1_cntrl1.sequencer.pio-slave-port            4                       # Packet count per connected master and slave (bytes)
system.iobus.pkt_count_system.ruby.l1_cntrl2.sequencer.mem-master-port::system.ruby.l1_cntrl2.sequencer.pio-slave-port         1836                       # Packet count per connected master and slave (bytes)
system.iobus.pkt_count_system.ruby.l1_cntrl2.sequencer.mem-master-port::system.ruby.l1_cntrl3.sequencer.pio-slave-port            2                       # Packet count per connected master and slave (bytes)
system.iobus.pkt_count_system.ruby.l1_cntrl2.sequencer.mem-master-port::total         1866                       # Packet count per connected master and slave (bytes)
system.iobus.pkt_count_system.ruby.l1_cntrl3.sequencer.mem-master-port::system.pc.south_bridge.ide.pio           12                       # Packet count per connected master and slave (bytes)
system.iobus.pkt_count_system.ruby.l1_cntrl3.sequencer.mem-master-port::system.pc.south_bridge.io_apic.pio            6                       # Packet count per connected master and slave (bytes)
system.iobus.pkt_count_system.ruby.l1_cntrl3.sequencer.mem-master-port::system.pc.com_1.pio           22                       # Packet count per connected master and slave (bytes)
system.iobus.pkt_count_system.ruby.l1_cntrl3.sequencer.mem-master-port::system.ruby.l1_cntrl0.sequencer.pio-slave-port            2                       # Packet count per connected master and slave (bytes)
system.iobus.pkt_count_system.ruby.l1_cntrl3.sequencer.mem-master-port::system.ruby.l1_cntrl1.sequencer.pio-slave-port            2                       # Packet count per connected master and slave (bytes)
system.iobus.pkt_count_system.ruby.l1_cntrl3.sequencer.mem-master-port::system.ruby.l1_cntrl3.sequencer.pio-slave-port         1824                       # Packet count per connected master and slave (bytes)
system.iobus.pkt_count_system.ruby.l1_cntrl3.sequencer.mem-master-port::total         1868                       # Packet count per connected master and slave (bytes)
system.iobus.pkt_count::total                    7754                       # Packet count per connected master and slave (bytes)
system.iobus.pkt_size_system.pc.south_bridge.io_apic.int_master::system.ruby.l1_cntrl0.sequencer.pio-slave-port           12                       # Cumulative packet size per connected master and slave (bytes)
system.iobus.pkt_size_system.pc.south_bridge.io_apic.int_master::system.ruby.l1_cntrl1.sequencer.pio-slave-port            8                       # Cumulative packet size per connected master and slave (bytes)
system.iobus.pkt_size_system.pc.south_bridge.io_apic.int_master::system.ruby.l1_cntrl2.sequencer.pio-slave-port            8                       # Cumulative packet size per connected master and slave (bytes)
system.iobus.pkt_size_system.pc.south_bridge.io_apic.int_master::system.ruby.l1_cntrl3.sequencer.pio-slave-port            8                       # Cumulative packet size per connected master and slave (bytes)
system.iobus.pkt_size_system.pc.south_bridge.io_apic.int_master::total           36                       # Cumulative packet size per connected master and slave (bytes)
system.iobus.pkt_size_system.ruby.l1_cntrl0.sequencer.mem-master-port::system.pc.south_bridge.ide.pio           26                       # Cumulative packet size per connected master and slave (bytes)
system.iobus.pkt_size_system.ruby.l1_cntrl0.sequencer.mem-master-port::system.pc.south_bridge.io_apic.pio           28                       # Cumulative packet size per connected master and slave (bytes)
system.iobus.pkt_size_system.ruby.l1_cntrl0.sequencer.mem-master-port::system.pc.com_1.pio           81                       # Cumulative packet size per connected master and slave (bytes)
system.iobus.pkt_size_system.ruby.l1_cntrl0.sequencer.mem-master-port::system.ruby.l1_cntrl0.sequencer.pio-slave-port         3656                       # Cumulative packet size per connected master and slave (bytes)
system.iobus.pkt_size_system.ruby.l1_cntrl0.sequencer.mem-master-port::system.ruby.l1_cntrl1.sequencer.pio-slave-port            4                       # Cumulative packet size per connected master and slave (bytes)
system.iobus.pkt_size_system.ruby.l1_cntrl0.sequencer.mem-master-port::system.ruby.l1_cntrl3.sequencer.pio-slave-port            4                       # Cumulative packet size per connected master and slave (bytes)
system.iobus.pkt_size_system.ruby.l1_cntrl0.sequencer.mem-master-port::total         3799                       # Cumulative packet size per connected master and slave (bytes)
system.iobus.pkt_size_system.ruby.l1_cntrl1.sequencer.mem-master-port::system.pc.south_bridge.ide.pio           66                       # Cumulative packet size per connected master and slave (bytes)
system.iobus.pkt_size_system.ruby.l1_cntrl1.sequencer.mem-master-port::system.pc.south_bridge.io_apic.pio           16                       # Cumulative packet size per connected master and slave (bytes)
system.iobus.pkt_size_system.ruby.l1_cntrl1.sequencer.mem-master-port::system.ruby.l1_cntrl1.sequencer.pio-slave-port         3648                       # Cumulative packet size per connected master and slave (bytes)
system.iobus.pkt_size_system.ruby.l1_cntrl1.sequencer.mem-master-port::system.ruby.l1_cntrl2.sequencer.pio-slave-port            4                       # Cumulative packet size per connected master and slave (bytes)
system.iobus.pkt_size_system.ruby.l1_cntrl1.sequencer.mem-master-port::total         3734                       # Cumulative packet size per connected master and slave (bytes)
system.iobus.pkt_size_system.ruby.l1_cntrl2.sequencer.mem-master-port::system.pc.south_bridge.ide.pio            6                       # Cumulative packet size per connected master and slave (bytes)
system.iobus.pkt_size_system.ruby.l1_cntrl2.sequencer.mem-master-port::system.pc.south_bridge.io_apic.pio           16                       # Cumulative packet size per connected master and slave (bytes)
system.iobus.pkt_size_system.ruby.l1_cntrl2.sequencer.mem-master-port::system.ruby.l1_cntrl0.sequencer.pio-slave-port            8                       # Cumulative packet size per connected master and slave (bytes)
system.iobus.pkt_size_system.ruby.l1_cntrl2.sequencer.mem-master-port::system.ruby.l1_cntrl1.sequencer.pio-slave-port            8                       # Cumulative packet size per connected master and slave (bytes)
system.iobus.pkt_size_system.ruby.l1_cntrl2.sequencer.mem-master-port::system.ruby.l1_cntrl2.sequencer.pio-slave-port         3672                       # Cumulative packet size per connected master and slave (bytes)
system.iobus.pkt_size_system.ruby.l1_cntrl2.sequencer.mem-master-port::system.ruby.l1_cntrl3.sequencer.pio-slave-port            4                       # Cumulative packet size per connected master and slave (bytes)
system.iobus.pkt_size_system.ruby.l1_cntrl2.sequencer.mem-master-port::total         3714                       # Cumulative packet size per connected master and slave (bytes)
system.iobus.pkt_size_system.ruby.l1_cntrl3.sequencer.mem-master-port::system.pc.south_bridge.ide.pio            6                       # Cumulative packet size per connected master and slave (bytes)
system.iobus.pkt_size_system.ruby.l1_cntrl3.sequencer.mem-master-port::system.pc.south_bridge.io_apic.pio           12                       # Cumulative packet size per connected master and slave (bytes)
system.iobus.pkt_size_system.ruby.l1_cntrl3.sequencer.mem-master-port::system.pc.com_1.pio           11                       # Cumulative packet size per connected master and slave (bytes)
system.iobus.pkt_size_system.ruby.l1_cntrl3.sequencer.mem-master-port::system.ruby.l1_cntrl0.sequencer.pio-slave-port            4                       # Cumulative packet size per connected master and slave (bytes)
system.iobus.pkt_size_system.ruby.l1_cntrl3.sequencer.mem-master-port::system.ruby.l1_cntrl1.sequencer.pio-slave-port            4                       # Cumulative packet size per connected master and slave (bytes)
system.iobus.pkt_size_system.ruby.l1_cntrl3.sequencer.mem-master-port::system.ruby.l1_cntrl3.sequencer.pio-slave-port         3648                       # Cumulative packet size per connected master and slave (bytes)
system.iobus.pkt_size_system.ruby.l1_cntrl3.sequencer.mem-master-port::total         3685                       # Cumulative packet size per connected master and slave (bytes)
system.iobus.pkt_size::total                    14968                       # Cumulative packet size per connected master and slave (bytes)
system.iobus.reqLayer2.occupancy               161500                       # Layer occupancy (ticks)
system.iobus.reqLayer2.utilization                0.0                       # Layer utilization (%)
system.iobus.reqLayer8.occupancy                31496                       # Layer occupancy (ticks)
system.iobus.reqLayer8.utilization                0.0                       # Layer utilization (%)
system.iobus.reqLayer12.occupancy              119500                       # Layer occupancy (ticks)
system.iobus.reqLayer12.utilization               0.0                       # Layer utilization (%)
system.iobus.reqLayer17.occupancy             2287498                       # Layer occupancy (ticks)
system.iobus.reqLayer17.utilization               0.0                       # Layer utilization (%)
system.iobus.reqLayer18.occupancy             2286994                       # Layer occupancy (ticks)
system.iobus.reqLayer18.utilization               0.0                       # Layer utilization (%)
system.iobus.reqLayer19.occupancy             2080480                       # Layer occupancy (ticks)
system.iobus.reqLayer19.utilization               0.0                       # Layer utilization (%)
system.iobus.reqLayer20.occupancy             2281498                       # Layer occupancy (ticks)
system.iobus.reqLayer20.utilization               0.0                       # Layer utilization (%)
system.iobus.respLayer0.occupancy               12996                       # Layer occupancy (ticks)
system.iobus.respLayer0.utilization               0.0                       # Layer utilization (%)
system.iobus.respLayer2.occupancy             1556000                       # Layer occupancy (ticks)
system.iobus.respLayer2.utilization               0.0                       # Layer utilization (%)
system.iobus.respLayer4.occupancy             1449000                       # Layer occupancy (ticks)
system.iobus.respLayer4.utilization               0.0                       # Layer utilization (%)
system.iobus.respLayer6.occupancy             1402000                       # Layer occupancy (ticks)
system.iobus.respLayer6.utilization               0.0                       # Layer utilization (%)
system.iobus.respLayer8.occupancy             1405000                       # Layer occupancy (ticks)
system.iobus.respLayer8.utilization               0.0                       # Layer utilization (%)
system.pc.south_bridge.ide.disks.dma_read_full_pages            1                       # Number of full page size DMA reads (not PRD).
system.pc.south_bridge.ide.disks.dma_read_bytes         4096                       # Number of bytes transfered via DMA reads (not PRD).
system.pc.south_bridge.ide.disks.dma_read_txs            1                       # Number of DMA read transactions (not PRD).
system.pc.south_bridge.ide.disks.dma_write_full_pages           45                       # Number of full page size DMA writes.
system.pc.south_bridge.ide.disks.dma_write_bytes       184320                       # Number of bytes transfered via DMA writes.
system.pc.south_bridge.ide.disks.dma_write_txs           45                       # Number of DMA write transactions.
system.ruby.clk_domain.clock                      500                       # Clock period in ticks
system.ruby.outstanding_req_hist_seqr::bucket_size            1                      
system.ruby.outstanding_req_hist_seqr::max_bucket            9                      
system.ruby.outstanding_req_hist_seqr::samples   3587784500                      
system.ruby.outstanding_req_hist_seqr::mean     1.000000                      
system.ruby.outstanding_req_hist_seqr::gmean     1.000000                      
system.ruby.outstanding_req_hist_seqr::stdev     0.000254                      
system.ruby.outstanding_req_hist_seqr    |           0      0.00%      0.00% |  3587784269    100.00%    100.00% |         231      0.00%    100.00% |           0      0.00%    100.00% |           0      0.00%    100.00% |           0      0.00%    100.00% |           0      0.00%    100.00% |           0      0.00%    100.00% |           0      0.00%    100.00% |           0      0.00%    100.00%
[...]
system.ruby.L1Cache_Controller.O.L1_Replacement::total         1116                      
system.ruby.L1Cache_Controller.O.Fwd_GETX |        1891     13.93%     13.93% |        3679     27.10%     41.03% |         185      1.36%     42.39% |        7821     57.61%    100.00%
system.ruby.L1Cache_Controller.O.Fwd_GETX::total        13576                      
system.ruby.L1Cache_Controller.O.Fwd_GETS |        3363     13.37%     13.37% |       11775     46.83%     60.21% |         203      0.81%     61.01% |        9803     38.99%    100.00%
system.ruby.L1Cache_Controller.O.Fwd_GETS::total        25144                      
system.ruby.L1Cache_Controller.M.Load    |       96007      0.46%      0.46% |      359254      1.73%      2.19% |    20241278     97.55%     99.75% |       52422      0.25%    100.00%
system.ruby.L1Cache_Controller.M.Load::total     20748961                      
system.ruby.L1Cache_Controller.M.Store   |        6903      3.18%      3.18% |        8455      3.90%      7.08% |      199815     92.13%     99.21% |        1713      0.79%    100.00%
system.ruby.L1Cache_Controller.M.Store::total       216886                      
system.ruby.L1Cache_Controller.M.L1_Replacement |        7006      4.82%      4.82% |        5284      3.63%      8.45% |      127280     87.56%     96.01% |        5797      3.99%    100.00%
system.ruby.L1Cache_Controller.M.L1_Replacement::total       145367                      
system.ruby.L1Cache_Controller.M.Fwd_GETX |         308      7.57%      7.57% |        2154     52.96%     60.54% |         159      3.91%     64.45% |        1446     35.55%    100.00%
system.ruby.L1Cache_Controller.M.Fwd_GETX::total         4067                      
system.ruby.L1Cache_Controller.M.Fwd_GETS |        2014     13.61%     13.61% |        4040     27.30%     40.91% |         259      1.75%     42.66% |        8484     57.34%    100.00%
system.ruby.L1Cache_Controller.M.Fwd_GETS::total        14797                      
system.ruby.L1Cache_Controller.M_W.Load  |       12765     16.11%     16.11% |       10085     12.73%     28.85% |       44092     55.66%     84.51% |       12272     15.49%    100.00%
system.ruby.L1Cache_Controller.M_W.Load::total        79214                      
system.ruby.L1Cache_Controller.M_W.Store |        1428      2.26%      2.26% |        1839      2.91%      5.17% |       59498     94.09%     99.26% |         471      0.74%    100.00%
system.ruby.L1Cache_Controller.M_W.Store::total        63236                      
system.ruby.L1Cache_Controller.M_W.L1_Replacement |          31      5.72%      5.72% |          24      4.43%     10.15% |           0      0.00%     10.15% |         487     89.85%    100.00%
system.ruby.L1Cache_Controller.M_W.L1_Replacement::total          542                      
system.ruby.L1Cache_Controller.M_W.Fwd_GETX |           9     13.64%     13.64% |          45     68.18%     81.82% |           0      0.00%     81.82% |          12     18.18%    100.00%
system.ruby.L1Cache_Controller.M_W.Fwd_GETX::total           66                      
system.ruby.L1Cache_Controller.M_W.Fwd_GETS |           8      2.62%      2.62% |         150     49.18%     51.80% |           4      1.31%     53.11% |         143     46.89%    100.00%
system.ruby.L1Cache_Controller.M_W.Fwd_GETS::total          305                      
system.ruby.L1Cache_Controller.M_W.Use_Timeout |       16260      4.27%      4.27% |       19904      5.22%      9.49% |      327534     85.95%     95.44% |       17369      4.56%    100.00%
system.ruby.L1Cache_Controller.M_W.Use_Timeout::total       381067                      
system.ruby.L1Cache_Controller.MM.Load   |     1195328      0.35%      0.35% |     3634953      1.05%      1.40% |   340529526     98.43%     99.82% |      609634      0.18%    100.00%
system.ruby.L1Cache_Controller.MM.Load::total    345969441                      
system.ruby.L1Cache_Controller.MM.Store  |     1169578      0.67%      0.67% |     2370794      1.36%      2.03% |   169982771     97.59%     99.62% |      655973      0.38%    100.00%
system.ruby.L1Cache_Controller.MM.Store::total    174179116                      
system.ruby.L1Cache_Controller.MM.L1_Replacement |       29989      2.06%      2.06% |       45834      3.15%      5.21% |     1370009     94.22%     99.43% |        8253      0.57%    100.00%
system.ruby.L1Cache_Controller.MM.L1_Replacement::total      1454085                      
system.ruby.L1Cache_Controller.MM.Fwd_GETX |        2015     32.03%     32.03% |        1837     29.21%     61.24% |        1190     18.92%     80.16% |        1248     19.84%    100.00%
system.ruby.L1Cache_Controller.MM.Fwd_GETX::total         6290                      
system.ruby.L1Cache_Controller.MM.Fwd_GETS |        8600     48.12%     48.12% |        3781     21.16%     69.28% |        2457     13.75%     83.03% |        3033     16.97%    100.00%
system.ruby.L1Cache_Controller.MM.Fwd_GETS::total        17871                      
system.ruby.L1Cache_Controller.MM.Fwd_DMA |           5     14.71%     14.71% |          29     85.29%    100.00% |           0      0.00%    100.00% |           0      0.00%    100.00%
system.ruby.L1Cache_Controller.MM.Fwd_DMA::total           34                      
system.ruby.L1Cache_Controller.MM_W.Load |        5251     12.49%     12.49% |        2578      6.13%     18.62% |       33394     79.42%     98.04% |         825      1.96%    100.00%
system.ruby.L1Cache_Controller.MM_W.Load::total        42048                      
system.ruby.L1Cache_Controller.MM_W.Store |      117017     10.13%     10.13% |       92230      7.98%     18.11% |      914559     79.15%     97.26% |       31636      2.74%    100.00%
system.ruby.L1Cache_Controller.MM_W.Store::total      1155442                      
system.ruby.L1Cache_Controller.MM_W.L1_Replacement |           4     28.57%     28.57% |           7     50.00%     78.57% |           0      0.00%     78.57% |           3     21.43%    100.00%
system.ruby.L1Cache_Controller.MM_W.L1_Replacement::total           14                      
system.ruby.L1Cache_Controller.MM_W.Fwd_GETX |           0      0.00%      0.00% |           7     77.78%     77.78% |           2     22.22%    100.00% |           0      0.00%    100.00%
system.ruby.L1Cache_Controller.MM_W.Fwd_GETX::total            9                      
system.ruby.L1Cache_Controller.MM_W.Fwd_GETS |          94      3.33%      3.33% |         892     31.64%     34.98% |         833     29.55%     64.53% |        1000     35.47%    100.00%
system.ruby.L1Cache_Controller.MM_W.Fwd_GETS::total         2819                      
system.ruby.L1Cache_Controller.MM_W.Use_Timeout |       34025      2.70%      2.70% |       42801      3.39%      6.09% |     1174025     93.06%     99.15% |       10710      0.85%    100.00%
system.ruby.L1Cache_Controller.MM_W.Use_Timeout::total      1261561                      
system.ruby.L1Cache_Controller.IM.Ack    |       10091     50.31%     50.31% |        3592     17.91%     68.22% |        2969     14.80%     83.02% |        3406     16.98%    100.00%
system.ruby.L1Cache_Controller.IM.Ack::total        20058                      
system.ruby.L1Cache_Controller.IM.Exclusive_Data |       22404      1.90%      1.90% |       37503      3.18%      5.08% |     1111420     94.22%     99.30% |        8251      0.70%    100.00%
system.ruby.L1Cache_Controller.IM.Exclusive_Data::total      1179578                      
system.ruby.L1Cache_Controller.SM.Ack    |        8592     61.96%     61.96% |        1097      7.91%     69.87% |        2330     16.80%     86.67% |        1849     13.33%    100.00%
system.ruby.L1Cache_Controller.SM.Ack::total        13868                      
system.ruby.L1Cache_Controller.SM.Exclusive_Data |       10176     54.75%     54.75% |        3387     18.22%     72.97% |        3103     16.70%     89.67% |        1920     10.33%    100.00%
system.ruby.L1Cache_Controller.SM.Exclusive_Data::total        18586                      
system.ruby.L1Cache_Controller.OM.Own_GETX |          17     10.56%     10.56% |          72     44.72%     55.28% |           4      2.48%     57.76% |          68     42.24%    100.00%
system.ruby.L1Cache_Controller.OM.Own_GETX::total          161                      
system.ruby.L1Cache_Controller.OM.Ack    |         409     20.75%     20.75% |         534     27.09%     47.84% |         794     40.28%     88.13% |         234     11.87%    100.00%
system.ruby.L1Cache_Controller.OM.Ack::total         1971                      
system.ruby.L1Cache_Controller.OM.All_acks |       32597      2.72%      2.72% |       40962      3.42%      6.14% |     1114527     93.01%     99.15% |       10239      0.85%    100.00%
system.ruby.L1Cache_Controller.OM.All_acks::total      1198325                      
system.ruby.L1Cache_Controller.IS.Data   |      104187      4.67%      4.67% |       96963      4.35%      9.02% |     1980379     88.82%     97.84% |       48065      2.16%    100.00%
system.ruby.L1Cache_Controller.IS.Data::total      2229594                      
system.ruby.L1Cache_Controller.IS.Exclusive_Data |       17688      3.98%      3.98% |       21743      4.89%      8.87% |      387032     87.11%     95.98% |       17840      4.02%    100.00%
system.ruby.L1Cache_Controller.IS.Exclusive_Data::total       444303                      
system.ruby.L1Cache_Controller.SI.Load   |          18     33.96%     33.96% |           8     15.09%     49.06% |          27     50.94%    100.00% |           0      0.00%    100.00%
system.ruby.L1Cache_Controller.SI.Load::total           53                      
system.ruby.L1Cache_Controller.SI.Ifetch |           2    100.00%    100.00% |           0      0.00%    100.00% |           0      0.00%    100.00% |           0      0.00%    100.00%
system.ruby.L1Cache_Controller.SI.Ifetch::total            2                      
system.ruby.L1Cache_Controller.SI.Writeback_Ack |       70689      3.28%      3.28% |       78401      3.64%      6.92% |     1964753     91.14%     98.06% |       41873      1.94%    100.00%
system.ruby.L1Cache_Controller.SI.Writeback_Ack::total      2155716                      
system.ruby.L1Cache_Controller.SI.Writeback_Ack_Data |       21636     50.13%     50.13% |        9597     22.24%     72.37% |        9159     21.22%     93.59% |        2768      6.41%    100.00%
system.ruby.L1Cache_Controller.SI.Writeback_Ack_Data::total        43160                      
system.ruby.L1Cache_Controller.OI.Writeback_Ack_Data |         114     10.22%     10.22% |         342     30.65%     40.86% |          89      7.97%     48.84% |         571     51.16%    100.00%
system.ruby.L1Cache_Controller.OI.Writeback_Ack_Data::total         1116                      
system.ruby.L1Cache_Controller.MI.Load   |          14     12.84%     12.84% |          13     11.93%     24.77% |           1      0.92%     25.69% |          81     74.31%    100.00%
system.ruby.L1Cache_Controller.MI.Load::total          109                      
system.ruby.L1Cache_Controller.MI.Store  |           0      0.00%      0.00% |           0      0.00%      0.00% |           5    100.00%    100.00% |           0      0.00%    100.00%
system.ruby.L1Cache_Controller.MI.Store::total            5                      
system.ruby.L1Cache_Controller.MI.Writeback_Ack_Data |       36995      2.31%      2.31% |       51118      3.20%      5.51% |     1497289     93.61%     99.12% |       14050      0.88%    100.00%
system.ruby.L1Cache_Controller.MI.Writeback_Ack_Data::total      1599452                      
system.ruby.L2Cache_Controller.L1_GETS        2674206      0.00%      0.00%
system.ruby.L2Cache_Controller.L1_GETX        1198333      0.00%      0.00%
system.ruby.L2Cache_Controller.L1_PUTO           1116      0.00%      0.00%
system.ruby.L2Cache_Controller.L1_PUTX        1599452      0.00%      0.00%
system.ruby.L2Cache_Controller.L1_PUTS_only      1815758      0.00%      0.00%
system.ruby.L2Cache_Controller.L1_PUTS         383120      0.00%      0.00%
system.ruby.L2Cache_Controller.Fwd_GETX           782      0.00%      0.00%
system.ruby.L2Cache_Controller.Fwd_DMA             34      0.00%      0.00%
system.ruby.L2Cache_Controller.Inv                  4      0.00%      0.00%
system.ruby.L2Cache_Controller.IntAck              13      0.00%      0.00%
system.ruby.L2Cache_Controller.All_Acks         43243      0.00%      0.00%
system.ruby.L2Cache_Controller.Data             92343      0.00%      0.00%
system.ruby.L2Cache_Controller.Data_Exclusive           52      0.00%      0.00%
system.ruby.L2Cache_Controller.L1_WBCLEANDATA        43160      0.00%      0.00%
system.ruby.L2Cache_Controller.L1_WBDIRTYDATA      1600568      0.00%      0.00%
system.ruby.L2Cache_Controller.Writeback_Ack        39704      0.00%      0.00%
system.ruby.L2Cache_Controller.Unblock        4385310      0.00%      0.00%
system.ruby.L2Cache_Controller.Exclusive_Unblock      1642628      0.00%      0.00%
system.ruby.L2Cache_Controller.DmaAck              34      0.00%      0.00%
system.ruby.L2Cache_Controller.L2_Replacement        79478      0.00%      0.00%
system.ruby.L2Cache_Controller.NP.L1_GETS        49113      0.00%      0.00%
system.ruby.L2Cache_Controller.NP.L1_GETX        31796      0.00%      0.00%
system.ruby.L2Cache_Controller.ILS.L1_GETS         4421      0.00%      0.00%
system.ruby.L2Cache_Controller.ILS.L1_GETX         8730      0.00%      0.00%
system.ruby.L2Cache_Controller.ILS.L1_PUTS_only        39179      0.00%      0.00%
system.ruby.L2Cache_Controller.ILS.L1_PUTS         3981      0.00%      0.00%
system.ruby.L2Cache_Controller.ILX.L1_GETS        32668      0.00%      0.00%
system.ruby.L2Cache_Controller.ILX.L1_GETX        10310      0.00%      0.00%
system.ruby.L2Cache_Controller.ILX.L1_PUTX      1599452      0.00%      0.00%
system.ruby.L2Cache_Controller.ILX.Fwd_GETX           47      0.00%      0.00%
system.ruby.L2Cache_Controller.ILX.Fwd_DMA           34      0.00%      0.00%
system.ruby.L2Cache_Controller.ILOX.L1_GETS        13542      0.00%      0.00%
system.ruby.L2Cache_Controller.ILOX.L1_GETX          647      0.00%      0.00%
system.ruby.L2Cache_Controller.ILOX.L1_PUTO          346      0.00%      0.00%
system.ruby.L2Cache_Controller.ILOX.Fwd_GETX            5      0.00%      0.00%
system.ruby.L2Cache_Controller.ILOSX.L1_GETS        11602      0.00%      0.00%
system.ruby.L2Cache_Controller.ILOSX.L1_GETX        13085      0.00%      0.00%
system.ruby.L2Cache_Controller.ILOSX.L1_PUTO          770      0.00%      0.00%
system.ruby.L2Cache_Controller.ILOSX.L1_PUTS_only        14538      0.00%      0.00%
system.ruby.L2Cache_Controller.ILOSX.L1_PUTS         5118      0.00%      0.00%
system.ruby.L2Cache_Controller.S.L1_GETS      1761813      0.00%      0.00%
system.ruby.L2Cache_Controller.S.L1_GETX         1451      0.00%      0.00%
system.ruby.L2Cache_Controller.S.Inv                4      0.00%      0.00%
system.ruby.L2Cache_Controller.S.L2_Replacement        36566      0.00%      0.00%
system.ruby.L2Cache_Controller.OLSX.L1_GETS         8312      0.00%      0.00%
system.ruby.L2Cache_Controller.OLSX.L1_GETX          128      0.00%      0.00%
system.ruby.L2Cache_Controller.OLSX.L1_PUTS_only          655      0.00%      0.00%
system.ruby.L2Cache_Controller.OLSX.L1_PUTS         8232      0.00%      0.00%
system.ruby.L2Cache_Controller.OLSX.Fwd_GETX           13      0.00%      0.00%
system.ruby.L2Cache_Controller.OLSX.L2_Replacement           31      0.00%      0.00%
system.ruby.L2Cache_Controller.SLS.L1_GETS       365994      0.00%      0.00%
system.ruby.L2Cache_Controller.SLS.L1_GETX         1253      0.00%      0.00%
system.ruby.L2Cache_Controller.SLS.L1_PUTS_only      1761385      0.00%      0.00%
system.ruby.L2Cache_Controller.SLS.L1_PUTS       365788      0.00%      0.00%
system.ruby.L2Cache_Controller.SLS.L2_Replacement         3208      0.00%      0.00%
system.ruby.L2Cache_Controller.M.L1_GETS       426432      0.00%      0.00%
system.ruby.L2Cache_Controller.M.L1_GETX      1130925      0.00%      0.00%
system.ruby.L2Cache_Controller.M.Fwd_GETX          717      0.00%      0.00%
system.ruby.L2Cache_Controller.M.L2_Replacement        39673      0.00%      0.00%
system.ruby.L2Cache_Controller.IFGX.Data_Exclusive           52      0.00%      0.00%
system.ruby.L2Cache_Controller.OLSF.IntAck           13      0.00%      0.00%
system.ruby.L2Cache_Controller.OLSF.All_Acks           13      0.00%      0.00%
system.ruby.L2Cache_Controller.ILOXW.L1_WBDIRTYDATA          346      0.00%      0.00%
system.ruby.L2Cache_Controller.ILOXW.Unblock        14538      0.00%      0.00%
system.ruby.L2Cache_Controller.ILOSXW.L1_WBDIRTYDATA          770      0.00%      0.00%
system.ruby.L2Cache_Controller.ILOSXW.Unblock         5118      0.00%      0.00%
system.ruby.L2Cache_Controller.SLSW.Unblock       365788      0.00%      0.00%
system.ruby.L2Cache_Controller.ILSW.L1_WBCLEANDATA         3981      0.00%      0.00%
system.ruby.L2Cache_Controller.IW.L1_WBCLEANDATA        39179      0.00%      0.00%
system.ruby.L2Cache_Controller.SW.L1_GETS            2      0.00%      0.00%
system.ruby.L2Cache_Controller.SW.Unblock      1761385      0.00%      0.00%
system.ruby.L2Cache_Controller.OXW.Unblock          655      0.00%      0.00%
system.ruby.L2Cache_Controller.OLSXW.Unblock         8232      0.00%      0.00%
system.ruby.L2Cache_Controller.ILXW.L1_GETS            3      0.00%      0.00%
system.ruby.L2Cache_Controller.ILXW.L1_WBDIRTYDATA      1599452      0.00%      0.00%
system.ruby.L2Cache_Controller.IFLS.L1_GETS            7      0.00%      0.00%
system.ruby.L2Cache_Controller.IFLS.Unblock         4421      0.00%      0.00%
system.ruby.L2Cache_Controller.IFLOX.Unblock        13542      0.00%      0.00%
system.ruby.L2Cache_Controller.IFLOX.Exclusive_Unblock          128      0.00%      0.00%
system.ruby.L2Cache_Controller.IFLOXX.L1_GETS          144      0.00%      0.00%
system.ruby.L2Cache_Controller.IFLOXX.L1_GETX            8      0.00%      0.00%
system.ruby.L2Cache_Controller.IFLOXX.Unblock        14797      0.00%      0.00%
system.ruby.L2Cache_Controller.IFLOXX.Exclusive_Unblock        28828      0.00%      0.00%
system.ruby.L2Cache_Controller.IFLOSX.Unblock        11602      0.00%      0.00%
system.ruby.L2Cache_Controller.IFLXO.L1_GETS           84      0.00%      0.00%
system.ruby.L2Cache_Controller.IFLXO.Exclusive_Unblock        13085      0.00%      0.00%
system.ruby.L2Cache_Controller.IGS.L1_GETS           67      0.00%      0.00%
system.ruby.L2Cache_Controller.IGS.Data         49113      0.00%      0.00%
system.ruby.L2Cache_Controller.IGS.Unblock        49113      0.00%      0.00%
system.ruby.L2Cache_Controller.IGM.Data         33247      0.00%      0.00%
system.ruby.L2Cache_Controller.IGMLS.Data         9983      0.00%      0.00%
system.ruby.L2Cache_Controller.IGMO.All_Acks        43230      0.00%      0.00%
system.ruby.L2Cache_Controller.IGMO.Exclusive_Unblock        43230      0.00%      0.00%
system.ruby.L2Cache_Controller.MM.Exclusive_Unblock      1130925      0.00%      0.00%
system.ruby.L2Cache_Controller.SS.Unblock      1761813      0.00%      0.00%
system.ruby.L2Cache_Controller.OO.Exclusive_Unblock       426432      0.00%      0.00%
system.ruby.L2Cache_Controller.OLSXS.Unblock         8312      0.00%      0.00%
system.ruby.L2Cache_Controller.SLSS.L1_GETS            2      0.00%      0.00%
system.ruby.L2Cache_Controller.SLSS.L1_PUTS_only            1      0.00%      0.00%
system.ruby.L2Cache_Controller.SLSS.L1_PUTS            1      0.00%      0.00%
system.ruby.L2Cache_Controller.SLSS.Unblock       365994      0.00%      0.00%
system.ruby.L2Cache_Controller.MI.Writeback_Ack        39673      0.00%      0.00%
system.ruby.L2Cache_Controller.OLSI.Writeback_Ack           31      0.00%      0.00%
system.ruby.L2Cache_Controller.ILXD.DmaAck           34      0.00%      0.00%

---------- End Simulation Statistics   ----------
