
---------- Begin Simulation Statistics ----------
sim_seconds                                  1.263985                       # Number of seconds simulated
sim_ticks                                1263984973500                       # Number of ticks simulated
final_tick                               53666889870001                       # Number of ticks from beginning of simulation (restored from checkpoints and never reset)
sim_freq                                 1000000000000                       # Frequency of simulated ticks
host_inst_rate                                 126968                       # Simulator instruction rate (inst/s)
host_op_rate                                   169894                       # Simulator op (including micro ops) rate (op/s)
host_tick_rate                              296318332                       # Simulator tick rate (ticks/s)
host_mem_usage                                1813316                       # Number of bytes of host memory used
host_seconds                                  4265.63                       # Real time elapsed on the host
sim_insts                                   541597577                       # Number of instructions simulated
sim_ops                                     724706386                       # Number of ops (including micro ops) simulated
system.voltage_domain.voltage                       1                       # Voltage in Volts
system.clk_domain.clock                          1000                       # Clock period in ticks
system.mem_ctrls.bytes_read::ruby.dir_cntrl0    170601984                       # Number of bytes read from this memory
system.mem_ctrls.bytes_read::total          170601984                       # Number of bytes read from this memory
system.mem_ctrls.bytes_written::ruby.dir_cntrl0    100950720                       # Number of bytes written to this memory
system.mem_ctrls.bytes_written::total       100950720                       # Number of bytes written to this memory
system.mem_ctrls.num_reads::ruby.dir_cntrl0      2665656                       # Number of read requests responded to by this memory
system.mem_ctrls.num_reads::total             2665656                       # Number of read requests responded to by this memory
system.mem_ctrls.num_writes::ruby.dir_cntrl0      1577355                       # Number of write requests responded to by this memory
system.mem_ctrls.num_writes::total            1577355                       # Number of write requests responded to by this memory
system.mem_ctrls.bw_read::ruby.dir_cntrl0    134971529                       # Total read bandwidth from this memory (bytes/s)
system.mem_ctrls.bw_read::total             134971529                       # Total read bandwidth from this memory (bytes/s)
system.mem_ctrls.bw_write::ruby.dir_cntrl0     79867025                       # Write bandwidth from this memory (bytes/s)
system.mem_ctrls.bw_write::total             79867025                       # Write bandwidth from this memory (bytes/s)
system.mem_ctrls.bw_total::ruby.dir_cntrl0    214838554                       # Total bandwidth to/from this memory (bytes/s)
system.mem_ctrls.bw_total::total            214838554                       # Total bandwidth to/from this memory (bytes/s)
system.mem_ctrls.readReqs                     2665656                       # Number of read requests accepted
system.mem_ctrls.writeReqs                    1577355                       # Number of write requests accepted
system.mem_ctrls.readBursts                   2665656                       # Number of DRAM read bursts, including those serviced by the write queue
system.mem_ctrls.writeBursts                  1577355                       # Number of DRAM write bursts, including those merged in the write queue
system.mem_ctrls.bytesReadDRAM              170557248                       # Total number of bytes read from DRAM
system.mem_ctrls.bytesReadWrQ                   44736                       # Total number of bytes read from write queue
system.mem_ctrls.bytesWritten               100951488                       # Total number of bytes written to DRAM
system.mem_ctrls.bytesReadSys               170601984                       # Total read bytes from the system interface side
system.mem_ctrls.bytesWrittenSys            100950720                       # Total written bytes from the system interface side
system.mem_ctrls.servicedByWrQ                    699                       # Number of DRAM read bursts serviced by the write queue
system.mem_ctrls.mergedWrBursts                     0                       # Number of DRAM write bursts merged with an existing one
system.mem_ctrls.neitherReadNorWriteReqs            0                       # Number of requests that are neither read nor write
system.mem_ctrls.perBankRdBursts::0            167807                       # Per bank write bursts
system.mem_ctrls.perBankRdBursts::1            171028                       # Per bank write bursts
system.mem_ctrls.perBankRdBursts::2            164931                       # Per bank write bursts
system.mem_ctrls.perBankRdBursts::3            165332                       # Per bank write bursts
system.mem_ctrls.perBankRdBursts::4            167501                       # Per bank write bursts
system.mem_ctrls.perBankRdBursts::5            166720                       # Per bank write bursts
system.mem_ctrls.perBankRdBursts::6            169600                       # Per bank write bursts
system.mem_ctrls.perBankRdBursts::7            165592                       # Per bank write bursts
system.mem_ctrls.perBankRdBursts::8            167767                       # Per bank write bursts
system.mem_ctrls.perBankRdBursts::9            165116                       # Per bank write bursts
system.mem_ctrls.perBankRdBursts::10           165265                       # Per bank write bursts
system.mem_ctrls.perBankRdBursts::11           164140                       # Per bank write bursts
system.mem_ctrls.perBankRdBursts::12           165019                       # Per bank write bursts
system.mem_ctrls.perBankRdBursts::13           165106                       # Per bank write bursts
system.mem_ctrls.perBankRdBursts::14           166470                       # Per bank write bursts
system.mem_ctrls.perBankRdBursts::15           167563                       # Per bank write bursts
system.mem_ctrls.perBankWrBursts::0             98746                       # Per bank write bursts
system.mem_ctrls.perBankWrBursts::1            103163                       # Per bank write bursts
system.mem_ctrls.perBankWrBursts::2             98018                       # Per bank write bursts
system.mem_ctrls.perBankWrBursts::3             97394                       # Per bank write bursts
system.mem_ctrls.perBankWrBursts::4             98029                       # Per bank write bursts
system.mem_ctrls.perBankWrBursts::5             98804                       # Per bank write bursts
system.mem_ctrls.perBankWrBursts::6            100529                       # Per bank write bursts
system.mem_ctrls.perBankWrBursts::7             98406                       # Per bank write bursts
system.mem_ctrls.perBankWrBursts::8            100162                       # Per bank write bursts
system.mem_ctrls.perBankWrBursts::9             97203                       # Per bank write bursts
system.mem_ctrls.perBankWrBursts::10            98173                       # Per bank write bursts
system.mem_ctrls.perBankWrBursts::11            97536                       # Per bank write bursts
system.mem_ctrls.perBankWrBursts::12            97728                       # Per bank write bursts
system.mem_ctrls.perBankWrBursts::13            97108                       # Per bank write bursts
system.mem_ctrls.perBankWrBursts::14            98389                       # Per bank write bursts
system.mem_ctrls.perBankWrBursts::15            97979                       # Per bank write bursts
system.mem_ctrls.numRdRetry                         0                       # Number of times read queue was full causing retry
system.mem_ctrls.numWrRetry                         0                       # Number of times write queue was full causing retry
system.mem_ctrls.totGap                  1263984792500                       # Total gap between requests
system.mem_ctrls.readPktSize::0                     0                       # Read request sizes (log2)
system.mem_ctrls.readPktSize::1                     0                       # Read request sizes (log2)
system.mem_ctrls.readPktSize::2                     0                       # Read request sizes (log2)
system.mem_ctrls.readPktSize::3                     0                       # Read request sizes (log2)
system.mem_ctrls.readPktSize::4                     0                       # Read request sizes (log2)
system.mem_ctrls.readPktSize::5                     0                       # Read request sizes (log2)
system.mem_ctrls.readPktSize::6               2665656                       # Read request sizes (log2)
system.mem_ctrls.writePktSize::0                    0                       # Write request sizes (log2)
system.mem_ctrls.writePktSize::1                    0                       # Write request sizes (log2)
system.mem_ctrls.writePktSize::2                    0                       # Write request sizes (log2)
system.mem_ctrls.writePktSize::3                    0                       # Write request sizes (log2)
system.mem_ctrls.writePktSize::4                    0                       # Write request sizes (log2)
system.mem_ctrls.writePktSize::5                    0                       # Write request sizes (log2)
system.mem_ctrls.writePktSize::6              1577355                       # Write request sizes (log2)
system.mem_ctrls.rdQLenPdf::0                 2656184                       # What read queue length does an incoming req see
system.mem_ctrls.rdQLenPdf::1                    8772                       # What read queue length does an incoming req see
system.mem_ctrls.rdQLenPdf::2                       1                       # What read queue length does an incoming req see
system.mem_ctrls.rdQLenPdf::3                       0                       # What read queue length does an incoming req see
system.mem_ctrls.rdQLenPdf::4                       0                       # What read queue length does an incoming req see
system.mem_ctrls.rdQLenPdf::5                       0                       # What read queue length does an incoming req see
system.mem_ctrls.rdQLenPdf::6                       0                       # What read queue length does an incoming req see
system.mem_ctrls.rdQLenPdf::7                       0                       # What read queue length does an incoming req see
system.mem_ctrls.rdQLenPdf::8                       0                       # What read queue length does an incoming req see
system.mem_ctrls.rdQLenPdf::9                       0                       # What read queue length does an incoming req see
system.mem_ctrls.rdQLenPdf::10                      0                       # What read queue length does an incoming req see
system.mem_ctrls.rdQLenPdf::11                      0                       # What read queue length does an incoming req see
system.mem_ctrls.rdQLenPdf::12                      0                       # What read queue length does an incoming req see
system.mem_ctrls.rdQLenPdf::13                      0                       # What read queue length does an incoming req see
system.mem_ctrls.rdQLenPdf::14                      0                       # What read queue length does an incoming req see
system.mem_ctrls.rdQLenPdf::15                      0                       # What read queue length does an incoming req see
system.mem_ctrls.rdQLenPdf::16                      0                       # What read queue length does an incoming req see
system.mem_ctrls.rdQLenPdf::17                      0                       # What read queue length does an incoming req see
system.mem_ctrls.rdQLenPdf::18                      0                       # What read queue length does an incoming req see
system.mem_ctrls.rdQLenPdf::19                      0                       # What read queue length does an incoming req see
system.mem_ctrls.rdQLenPdf::20                      0                       # What read queue length does an incoming req see
system.mem_ctrls.rdQLenPdf::21                      0                       # What read queue length does an incoming req see
system.mem_ctrls.rdQLenPdf::22                      0                       # What read queue length does an incoming req see
system.mem_ctrls.rdQLenPdf::23                      0                       # What read queue length does an incoming req see
system.mem_ctrls.rdQLenPdf::24                      0                       # What read queue length does an incoming req see
system.mem_ctrls.rdQLenPdf::25                      0                       # What read queue length does an incoming req see
system.mem_ctrls.rdQLenPdf::26                      0                       # What read queue length does an incoming req see
system.mem_ctrls.rdQLenPdf::27                      0                       # What read queue length does an incoming req see
system.mem_ctrls.rdQLenPdf::28                      0                       # What read queue length does an incoming req see
system.mem_ctrls.rdQLenPdf::29                      0                       # What read queue length does an incoming req see
system.mem_ctrls.rdQLenPdf::30                      0                       # What read queue length does an incoming req see
system.mem_ctrls.rdQLenPdf::31                      0                       # What read queue length does an incoming req see
system.mem_ctrls.wrQLenPdf::0                       0                       # What write queue length does an incoming req see
system.mem_ctrls.wrQLenPdf::1                       0                       # What write queue length does an incoming req see
system.mem_ctrls.wrQLenPdf::2                       0                       # What write queue length does an incoming req see
system.mem_ctrls.wrQLenPdf::3                       0                       # What write queue length does an incoming req see
system.mem_ctrls.wrQLenPdf::4                       0                       # What write queue length does an incoming req see
system.mem_ctrls.wrQLenPdf::5                       0                       # What write queue length does an incoming req see
system.mem_ctrls.wrQLenPdf::6                       0                       # What write queue length does an incoming req see
system.mem_ctrls.wrQLenPdf::7                       0                       # What write queue length does an incoming req see
system.mem_ctrls.wrQLenPdf::8                       0                       # What write queue length does an incoming req see
system.mem_ctrls.wrQLenPdf::9                       0                       # What write queue length does an incoming req see
system.mem_ctrls.wrQLenPdf::10                      0                       # What write queue length does an incoming req see
system.mem_ctrls.wrQLenPdf::11                      0                       # What write queue length does an incoming req see
system.mem_ctrls.wrQLenPdf::12                      0                       # What write queue length does an incoming req see
system.mem_ctrls.wrQLenPdf::13                      0                       # What write queue length does an incoming req see
system.mem_ctrls.wrQLenPdf::14                      0                       # What write queue length does an incoming req see
system.mem_ctrls.wrQLenPdf::15                   1121                       # What write queue length does an incoming req see
system.mem_ctrls.wrQLenPdf::16                   1280                       # What write queue length does an incoming req see
system.mem_ctrls.wrQLenPdf::17                  97230                       # What write queue length does an incoming req see
system.mem_ctrls.wrQLenPdf::18                  98492                       # What write queue length does an incoming req see
system.mem_ctrls.wrQLenPdf::19                  98536                       # What write queue length does an incoming req see
system.mem_ctrls.wrQLenPdf::20                  98508                       # What write queue length does an incoming req see
system.mem_ctrls.wrQLenPdf::21                  98535                       # What write queue length does an incoming req see
system.mem_ctrls.wrQLenPdf::22                  98534                       # What write queue length does an incoming req see
system.mem_ctrls.wrQLenPdf::23                  98559                       # What write queue length does an incoming req see
system.mem_ctrls.wrQLenPdf::24                  98573                       # What write queue length does an incoming req see
system.mem_ctrls.wrQLenPdf::25                  98552                       # What write queue length does an incoming req see
system.mem_ctrls.wrQLenPdf::26                  98519                       # What write queue length does an incoming req see
system.mem_ctrls.wrQLenPdf::27                  98546                       # What write queue length does an incoming req see
system.mem_ctrls.wrQLenPdf::28                  98513                       # What write queue length does an incoming req see
system.mem_ctrls.wrQLenPdf::29                  98479                       # What write queue length does an incoming req see
system.mem_ctrls.wrQLenPdf::30                  98472                       # What write queue length does an incoming req see
system.mem_ctrls.wrQLenPdf::31                  98452                       # What write queue length does an incoming req see
system.mem_ctrls.wrQLenPdf::32                  98447                       # What write queue length does an incoming req see
system.mem_ctrls.wrQLenPdf::33                      7                       # What write queue length does an incoming req see
system.mem_ctrls.wrQLenPdf::34                      0                       # What write queue length does an incoming req see
system.mem_ctrls.wrQLenPdf::35                      0                       # What write queue length does an incoming req see
system.mem_ctrls.wrQLenPdf::36                      0                       # What write queue length does an incoming req see
system.mem_ctrls.wrQLenPdf::37                      0                       # What write queue length does an incoming req see
system.mem_ctrls.wrQLenPdf::38                      0                       # What write queue length does an incoming req see
system.mem_ctrls.wrQLenPdf::39                      0                       # What write queue length does an incoming req see
system.mem_ctrls.wrQLenPdf::40                      0                       # What write queue length does an incoming req see
system.mem_ctrls.wrQLenPdf::41                      0                       # What write queue length does an incoming req see
system.mem_ctrls.wrQLenPdf::42                      0                       # What write queue length does an incoming req see
system.mem_ctrls.wrQLenPdf::43                      0                       # What write queue length does an incoming req see
system.mem_ctrls.wrQLenPdf::44                      0                       # What write queue length does an incoming req see
system.mem_ctrls.wrQLenPdf::45                      0                       # What write queue length does an incoming req see
system.mem_ctrls.wrQLenPdf::46                      0                       # What write queue length does an incoming req see
system.mem_ctrls.wrQLenPdf::47                      0                       # What write queue length does an incoming req see
system.mem_ctrls.wrQLenPdf::48                      0                       # What write queue length does an incoming req see
system.mem_ctrls.wrQLenPdf::49                      0                       # What write queue length does an incoming req see
system.mem_ctrls.wrQLenPdf::50                      0                       # What write queue length does an incoming req see
system.mem_ctrls.wrQLenPdf::51                      0                       # What write queue length does an incoming req see
system.mem_ctrls.wrQLenPdf::52                      0                       # What write queue length does an incoming req see
system.mem_ctrls.wrQLenPdf::53                      0                       # What write queue length does an incoming req see
system.mem_ctrls.wrQLenPdf::54                      0                       # What write queue length does an incoming req see
system.mem_ctrls.wrQLenPdf::55                      0                       # What write queue length does an incoming req see
system.mem_ctrls.wrQLenPdf::56                      0                       # What write queue length does an incoming req see
system.mem_ctrls.wrQLenPdf::57                      0                       # What write queue length does an incoming req see
system.mem_ctrls.wrQLenPdf::58                      0                       # What write queue length does an incoming req see
system.mem_ctrls.wrQLenPdf::59                      0                       # What write queue length does an incoming req see
system.mem_ctrls.wrQLenPdf::60                      0                       # What write queue length does an incoming req see
system.mem_ctrls.wrQLenPdf::61                      0                       # What write queue length does an incoming req see
system.mem_ctrls.wrQLenPdf::62                      0                       # What write queue length does an incoming req see
system.mem_ctrls.wrQLenPdf::63                      0                       # What write queue length does an incoming req see
system.mem_ctrls.bytesPerActivate::samples      2068001                       # Bytes accessed per row activation
system.mem_ctrls.bytesPerActivate::mean    131.290428                       # Bytes accessed per row activation
system.mem_ctrls.bytesPerActivate::gmean    90.928509                       # Bytes accessed per row activation
system.mem_ctrls.bytesPerActivate::stdev   180.101164                       # Bytes accessed per row activation
system.mem_ctrls.bytesPerActivate::0-127      1498938     72.48%     72.48% # Bytes accessed per row activation
system.mem_ctrls.bytesPerActivate::128-255       346334     16.75%     89.23% # Bytes accessed per row activation
system.mem_ctrls.bytesPerActivate::256-383        66974      3.24%     92.47% # Bytes accessed per row activation
system.mem_ctrls.bytesPerActivate::384-511        38582      1.87%     94.33% # Bytes accessed per row activation
system.mem_ctrls.bytesPerActivate::512-639        31918      1.54%     95.88% # Bytes accessed per row activation
system.mem_ctrls.bytesPerActivate::640-767        20787      1.01%     96.88% # Bytes accessed per row activation
system.mem_ctrls.bytesPerActivate::768-895        15159      0.73%     97.62% # Bytes accessed per row activation
system.mem_ctrls.bytesPerActivate::896-1023        12732      0.62%     98.23% # Bytes accessed per row activation
system.mem_ctrls.bytesPerActivate::1024-1151        36577      1.77%    100.00% # Bytes accessed per row activation
system.mem_ctrls.bytesPerActivate::total      2068001                       # Bytes accessed per row activation
system.mem_ctrls.rdPerTurnAround::samples        98431                       # Reads before turning the bus around for writes
system.mem_ctrls.rdPerTurnAround::mean      27.075068                       # Reads before turning the bus around for writes
system.mem_ctrls.rdPerTurnAround::gmean     24.533023                       # Reads before turning the bus around for writes
system.mem_ctrls.rdPerTurnAround::stdev     17.773164                       # Reads before turning the bus around for writes
system.mem_ctrls.rdPerTurnAround::0-15            138      0.14%      0.14% # Reads before turning the bus around for writes
system.mem_ctrls.rdPerTurnAround::16-31         71011     72.14%     72.28% # Reads before turning the bus around for writes
system.mem_ctrls.rdPerTurnAround::32-47         23037     23.40%     95.69% # Reads before turning the bus around for writes
system.mem_ctrls.rdPerTurnAround::48-63          2244      2.28%     97.97% # Reads before turning the bus around for writes
system.mem_ctrls.rdPerTurnAround::64-79           717      0.73%     98.70% # Reads before turning the bus around for writes
system.mem_ctrls.rdPerTurnAround::80-95           312      0.32%     99.01% # Reads before turning the bus around for writes
system.mem_ctrls.rdPerTurnAround::96-111          137      0.14%     99.15% # Reads before turning the bus around for writes
system.mem_ctrls.rdPerTurnAround::112-127          119      0.12%     99.27% # Reads before turning the bus around for writes
system.mem_ctrls.rdPerTurnAround::128-143          103      0.10%     99.38% # Reads before turning the bus around for writes
system.mem_ctrls.rdPerTurnAround::144-159          108      0.11%     99.49% # Reads before turning the bus around for writes
system.mem_ctrls.rdPerTurnAround::160-175           83      0.08%     99.57% # Reads before turning the bus around for writes
system.mem_ctrls.rdPerTurnAround::176-191          123      0.12%     99.70% # Reads before turning the bus around for writes
system.mem_ctrls.rdPerTurnAround::192-207          122      0.12%     99.82% # Reads before turning the bus around for writes
system.mem_ctrls.rdPerTurnAround::208-223           94      0.10%     99.92% # Reads before turning the bus around for writes
system.mem_ctrls.rdPerTurnAround::224-239           34      0.03%     99.95% # Reads before turning the bus around for writes
system.mem_ctrls.rdPerTurnAround::240-255           15      0.02%     99.97% # Reads before turning the bus around for writes
system.mem_ctrls.rdPerTurnAround::256-271           15      0.02%     99.98% # Reads before turning the bus around for writes
system.mem_ctrls.rdPerTurnAround::272-287           12      0.01%     99.99% # Reads before turning the bus around for writes
system.mem_ctrls.rdPerTurnAround::304-319            1      0.00%     99.99% # Reads before turning the bus around for writes
system.mem_ctrls.rdPerTurnAround::320-335            2      0.00%    100.00% # Reads before turning the bus around for writes
system.mem_ctrls.rdPerTurnAround::336-351            1      0.00%    100.00% # Reads before turning the bus around for writes
system.mem_ctrls.rdPerTurnAround::352-367            2      0.00%    100.00% # Reads before turning the bus around for writes
system.mem_ctrls.rdPerTurnAround::416-431            1      0.00%    100.00% # Reads before turning the bus around for writes
system.mem_ctrls.rdPerTurnAround::total         98431                       # Reads before turning the bus around for writes
system.mem_ctrls.wrPerTurnAround::samples        98431                       # Writes before turning the bus around for reads
system.mem_ctrls.wrPerTurnAround::mean      16.025104                       # Writes before turning the bus around for reads
system.mem_ctrls.wrPerTurnAround::gmean     16.023679                       # Writes before turning the bus around for reads
system.mem_ctrls.wrPerTurnAround::stdev      0.222182                       # Writes before turning the bus around for reads
system.mem_ctrls.wrPerTurnAround::16            97159     98.71%     98.71% # Writes before turning the bus around for reads
system.mem_ctrls.wrPerTurnAround::17               99      0.10%     98.81% # Writes before turning the bus around for reads
system.mem_ctrls.wrPerTurnAround::18             1147      1.17%     99.97% # Writes before turning the bus around for reads
system.mem_ctrls.wrPerTurnAround::19               26      0.03%    100.00% # Writes before turning the bus around for reads
system.mem_ctrls.wrPerTurnAround::total         98431                       # Writes before turning the bus around for reads
system.mem_ctrls.totQLat                  62967275291                       # Total ticks spent queuing
system.mem_ctrls.totMemAccLat            112935219041                       # Total ticks spent from burst creation until serviced by the DRAM
system.mem_ctrls.totBusLat                13324785000                       # Total ticks spent in databus transfers
system.mem_ctrls.avgQLat                     23627.88                       # Average queueing delay per DRAM burst
system.mem_ctrls.avgBusLat                    5000.00                       # Average bus latency per DRAM burst
system.mem_ctrls.avgMemAccLat                42377.88                       # Average memory access latency per DRAM burst
system.mem_ctrls.avgRdBW                       134.94                       # Average DRAM read bandwidth in MiByte/s
system.mem_ctrls.avgWrBW                        79.87                       # Average achieved write bandwidth in MiByte/s
system.mem_ctrls.avgRdBWSys                    134.97                       # Average system read bandwidth in MiByte/s
system.mem_ctrls.avgWrBWSys                     79.87                       # Average system write bandwidth in MiByte/s
system.mem_ctrls.peakBW                      12800.00                       # Theoretical peak bandwidth in MiByte/s
system.mem_ctrls.busUtil                         1.68                       # Data bus utilization in percentage
system.mem_ctrls.busUtilRead                     1.05                       # Data bus utilization in percentage for reads
system.mem_ctrls.busUtilWrite                    0.62                       # Data bus utilization in percentage for writes
system.mem_ctrls.avgRdQLen                       1.00                       # Average read queue length when enqueuing
system.mem_ctrls.avgWrQLen                      25.71                       # Average write queue length when enqueuing
system.mem_ctrls.readRowHits                  1363073                       # Number of row buffer hits during reads
system.mem_ctrls.writeRowHits                  811247                       # Number of row buffer hits during writes
system.mem_ctrls.readRowHitRate                 51.15                       # Row buffer hit rate for reads
system.mem_ctrls.writeRowHitRate                51.43                       # Row buffer hit rate for writes
system.mem_ctrls.avgGap                     297898.07                       # Average gap between requests
system.mem_ctrls.pageHitRate                    51.25                       # Row buffer hit rate, read and write combined
system.mem_ctrls_0.actEnergy               7897168440                       # Energy for activate commands per rank (pJ)
system.mem_ctrls_0.preEnergy               4308970875                       # Energy for precharge commands per rank (pJ)
system.mem_ctrls_0.readEnergy             10544570400                       # Energy for read commands per rank (pJ)
system.mem_ctrls_0.writeEnergy             5142275280                       # Energy for write commands per rank (pJ)
system.mem_ctrls_0.refreshEnergy          83023945680                       # Energy for refresh commands per rank (pJ)
system.mem_ctrls_0.actBackEnergy         286161895980                       # Energy for active background per rank (pJ)
system.mem_ctrls_0.preBackEnergy         511658151750                       # Energy for precharge background per rank (pJ)
system.mem_ctrls_0.totalEnergy           908736978405                       # Total energy per rank (pJ)
system.mem_ctrls_0.averagePower            714.905433                       # Core power per rank (mW)
system.mem_ctrls_0.memoryStateTime::IDLE 841294637001                       # Time in different power states
system.mem_ctrls_0.memoryStateTime::REF   42207100000                       # Time in different power states
system.mem_ctrls_0.memoryStateTime::PRE_PDN            0                       # Time in different power states
system.mem_ctrls_0.memoryStateTime::ACT  380476951999                       # Time in different power states
system.mem_ctrls_0.memoryStateTime::ACT_PDN            0                       # Time in different power states
system.mem_ctrls_1.actEnergy               7780260600                       # Energy for activate commands per rank (pJ)
system.mem_ctrls_1.preEnergy               4245181875                       # Energy for precharge commands per rank (pJ)
system.mem_ctrls_1.readEnergy             10443700800                       # Energy for read commands per rank (pJ)
system.mem_ctrls_1.writeEnergy             5084104320                       # Energy for write commands per rank (pJ)
system.mem_ctrls_1.refreshEnergy          83023945680                       # Energy for refresh commands per rank (pJ)
system.mem_ctrls_1.actBackEnergy         284413966470                       # Energy for active background per rank (pJ)
system.mem_ctrls_1.preBackEnergy         513191423250                       # Energy for precharge background per rank (pJ)
system.mem_ctrls_1.totalEnergy           908182582995                       # Total energy per rank (pJ)
system.mem_ctrls_1.averagePower            714.469288                       # Core power per rank (mW)
system.mem_ctrls_1.memoryStateTime::IDLE 844107797502                       # Time in different power states
system.mem_ctrls_1.memoryStateTime::REF   42207100000                       # Time in different power states
system.mem_ctrls_1.memoryStateTime::PRE_PDN            0                       # Time in different power states
system.mem_ctrls_1.memoryStateTime::ACT  377672641498                       # Time in different power states
system.mem_ctrls_1.memoryStateTime::ACT_PDN            0                       # Time in different power states
system.cpu_voltage_domain.voltage                   1                       # Voltage in Volts
system.cpu_clk_domain.clock                       500                       # Clock period in ticks
system.cpu0.apic_clk_domain.clock                8000                       # Clock period in ticks
system.cpu0.numCycles                      2525770378                       # number of cpu cycles simulated
system.cpu0.numWorkItemsStarted                     0                       # number of work items this cpu started
system.cpu0.numWorkItemsCompleted                   0                       # number of work items this cpu completed
system.cpu0.kern.inst.arm                           0                       # number of arm instructions executed
system.cpu0.kern.inst.quiesce                       0                       # number of quiesce instructions executed
system.cpu0.committedInsts                    3134517                       # Number of instructions committed
system.cpu0.committedOps                      6281749                       # Number of ops (including micro ops) committed
system.cpu0.num_int_alu_accesses              6171037                       # Number of integer alu accesses
system.cpu0.num_fp_alu_accesses                  1826                       # Number of float alu accesses
system.cpu0.num_func_calls                     168026                       # number of times a function call or return occured
system.cpu0.num_conditional_control_insts       512988                       # number of instructions that are conditional controls
system.cpu0.num_int_insts                     6171037                       # number of integer instructions
system.cpu0.num_fp_insts                         1826                       # number of float instructions
system.cpu0.num_int_register_reads           12310078                       # number of times the integer registers were read
system.cpu0.num_int_register_writes           5016835                       # number of times the integer registers were written
system.cpu0.num_fp_register_reads                3068                       # number of times the floating registers were read
system.cpu0.num_fp_register_writes               1448                       # number of times the floating registers were written
system.cpu0.num_cc_register_reads             3872122                       # number of times the CC registers were read
system.cpu0.num_cc_register_writes            2130540                       # number of times the CC registers were written
system.cpu0.num_mem_refs                      1420085                       # number of memory refs
system.cpu0.num_load_insts                     915657                       # Number of load instructions
system.cpu0.num_store_insts                    504428                       # Number of store instructions
system.cpu0.num_idle_cycles              2509492241.828926                       # Number of idle cycles
system.cpu0.num_busy_cycles              16278136.171074                       # Number of busy cycles
system.cpu0.not_idle_fraction                0.006445                       # Percentage of non-idle cycles
system.cpu0.idle_fraction                    0.993555                       # Percentage of idle cycles
system.cpu0.Branches                           712727                       # Number of branches fetched
system.cpu0.op_class::No_OpClass                41820      0.67%      0.67% # Class of executed instruction
system.cpu0.op_class::IntAlu                  4800809     76.42%     77.09% # Class of executed instruction
system.cpu0.op_class::IntMult                    5140      0.08%     77.17% # Class of executed instruction
system.cpu0.op_class::IntDiv                    12609      0.20%     77.37% # Class of executed instruction
system.cpu0.op_class::FloatAdd                   1376      0.02%     77.39% # Class of executed instruction
system.cpu0.op_class::FloatCmp                      0      0.00%     77.39% # Class of executed instruction
system.cpu0.op_class::FloatCvt                      0      0.00%     77.39% # Class of executed instruction
system.cpu0.op_class::FloatMult                     0      0.00%     77.39% # Class of executed instruction
system.cpu0.op_class::FloatDiv                      0      0.00%     77.39% # Class of executed instruction
system.cpu0.op_class::FloatSqrt                     0      0.00%     77.39% # Class of executed instruction
system.cpu0.op_class::SimdAdd                       0      0.00%     77.39% # Class of executed instruction
system.cpu0.op_class::SimdAddAcc                    0      0.00%     77.39% # Class of executed instruction
system.cpu0.op_class::SimdAlu                       0      0.00%     77.39% # Class of executed instruction
system.cpu0.op_class::SimdCmp                       0      0.00%     77.39% # Class of executed instruction
system.cpu0.op_class::SimdCvt                       0      0.00%     77.39% # Class of executed instruction
system.cpu0.op_class::SimdMisc                      0      0.00%     77.39% # Class of executed instruction
system.cpu0.op_class::SimdMult                      0      0.00%     77.39% # Class of executed instruction
system.cpu0.op_class::SimdMultAcc                   0      0.00%     77.39% # Class of executed instruction
system.cpu0.op_class::SimdShift                     0      0.00%     77.39% # Class of executed instruction
system.cpu0.op_class::SimdShiftAcc                  0      0.00%     77.39% # Class of executed instruction
system.cpu0.op_class::SimdSqrt                      0      0.00%     77.39% # Class of executed instruction
system.cpu0.op_class::SimdFloatAdd                  0      0.00%     77.39% # Class of executed instruction
system.cpu0.op_class::SimdFloatAlu                  0      0.00%     77.39% # Class of executed instruction
system.cpu0.op_class::SimdFloatCmp                  0      0.00%     77.39% # Class of executed instruction
system.cpu0.op_class::SimdFloatCvt                  0      0.00%     77.39% # Class of executed instruction
system.cpu0.op_class::SimdFloatDiv                  0      0.00%     77.39% # Class of executed instruction
system.cpu0.op_class::SimdFloatMisc                 0      0.00%     77.39% # Class of executed instruction
system.cpu0.op_class::SimdFloatMult                 0      0.00%     77.39% # Class of executed instruction
system.cpu0.op_class::SimdFloatMultAcc              0      0.00%     77.39% # Class of executed instruction
system.cpu0.op_class::SimdFloatSqrt                 0      0.00%     77.39% # Class of executed instruction
system.cpu0.op_class::MemRead                  915657     14.58%     91.97% # Class of executed instruction
system.cpu0.op_class::MemWrite                 504428      8.03%    100.00% # Class of executed instruction
system.cpu0.op_class::IprAccess                     0      0.00%    100.00% # Class of executed instruction
system.cpu0.op_class::InstPrefetch                  0      0.00%    100.00% # Class of executed instruction
system.cpu0.op_class::total                   6281839                       # Class of executed instruction
system.cpu1.apic_clk_domain.clock                8000                       # Clock period in ticks
system.cpu1.numCycles                      2531341864                       # number of cpu cycles simulated
system.cpu1.numWorkItemsStarted                     0                       # number of work items this cpu started
system.cpu1.numWorkItemsCompleted                   0                       # number of work items this cpu completed
system.cpu1.kern.inst.arm                           0                       # number of arm instructions executed
system.cpu1.kern.inst.quiesce                       0                       # number of quiesce instructions executed
system.cpu1.committedInsts                     926637                       # Number of instructions committed
system.cpu1.committedOps                      1979034                       # Number of ops (including micro ops) committed
system.cpu1.num_int_alu_accesses              1934061                       # Number of integer alu accesses
system.cpu1.num_fp_alu_accesses                    39                       # Number of float alu accesses
system.cpu1.num_func_calls                      54626                       # number of times a function call or return occured
system.cpu1.num_conditional_control_insts       138895                       # number of instructions that are conditional controls
system.cpu1.num_int_insts                     1934061                       # number of integer instructions
system.cpu1.num_fp_insts                           39                       # number of float instructions
system.cpu1.num_int_register_reads            3932216                       # number of times the integer registers were read
system.cpu1.num_int_register_writes           1598124                       # number of times the integer registers were written
system.cpu1.num_fp_register_reads                  63                       # number of times the floating registers were read
system.cpu1.num_fp_register_writes                 31                       # number of times the floating registers were written
system.cpu1.num_cc_register_reads             1083458                       # number of times the CC registers were read
system.cpu1.num_cc_register_writes             581857                       # number of times the CC registers were written
system.cpu1.num_mem_refs                       475193                       # number of memory refs
system.cpu1.num_load_insts                     297226                       # Number of load instructions
system.cpu1.num_store_insts                    177967                       # Number of store instructions
system.cpu1.num_idle_cycles              2525344019.469146                       # Number of idle cycles
system.cpu1.num_busy_cycles              5997844.530854                       # Number of busy cycles
system.cpu1.not_idle_fraction                0.002369                       # Percentage of non-idle cycles
system.cpu1.idle_fraction                    0.997631                       # Percentage of idle cycles
system.cpu1.Branches                           211183                       # Number of branches fetched
system.cpu1.op_class::No_OpClass                32562      1.65%      1.65% # Class of executed instruction
system.cpu1.op_class::IntAlu                  1455486     73.54%     75.19% # Class of executed instruction
system.cpu1.op_class::IntMult                    4761      0.24%     75.43% # Class of executed instruction
system.cpu1.op_class::IntDiv                    11024      0.56%     75.99% # Class of executed instruction
system.cpu1.op_class::FloatAdd                     30      0.00%     75.99% # Class of executed instruction
system.cpu1.op_class::FloatCmp                      0      0.00%     75.99% # Class of executed instruction
system.cpu1.op_class::FloatCvt                      0      0.00%     75.99% # Class of executed instruction
system.cpu1.op_class::FloatMult                     0      0.00%     75.99% # Class of executed instruction
system.cpu1.op_class::FloatDiv                      0      0.00%     75.99% # Class of executed instruction
system.cpu1.op_class::FloatSqrt                     0      0.00%     75.99% # Class of executed instruction
system.cpu1.op_class::SimdAdd                       0      0.00%     75.99% # Class of executed instruction
system.cpu1.op_class::SimdAddAcc                    0      0.00%     75.99% # Class of executed instruction
system.cpu1.op_class::SimdAlu                       0      0.00%     75.99% # Class of executed instruction
system.cpu1.op_class::SimdCmp                       0      0.00%     75.99% # Class of executed instruction
system.cpu1.op_class::SimdCvt                       0      0.00%     75.99% # Class of executed instruction
system.cpu1.op_class::SimdMisc                      0      0.00%     75.99% # Class of executed instruction
system.cpu1.op_class::SimdMult                      0      0.00%     75.99% # Class of executed instruction
system.cpu1.op_class::SimdMultAcc                   0      0.00%     75.99% # Class of executed instruction
system.cpu1.op_class::SimdShift                     0      0.00%     75.99% # Class of executed instruction
system.cpu1.op_class::SimdShiftAcc                  0      0.00%     75.99% # Class of executed instruction
system.cpu1.op_class::SimdSqrt                      0      0.00%     75.99% # Class of executed instruction
system.cpu1.op_class::SimdFloatAdd                  0      0.00%     75.99% # Class of executed instruction
system.cpu1.op_class::SimdFloatAlu                  0      0.00%     75.99% # Class of executed instruction
system.cpu1.op_class::SimdFloatCmp                  0      0.00%     75.99% # Class of executed instruction
system.cpu1.op_class::SimdFloatCvt                  0      0.00%     75.99% # Class of executed instruction
system.cpu1.op_class::SimdFloatDiv                  0      0.00%     75.99% # Class of executed instruction
system.cpu1.op_class::SimdFloatMisc                 0      0.00%     75.99% # Class of executed instruction
system.cpu1.op_class::SimdFloatMult                 0      0.00%     75.99% # Class of executed instruction
system.cpu1.op_class::SimdFloatMultAcc              0      0.00%     75.99% # Class of executed instruction
system.cpu1.op_class::SimdFloatSqrt                 0      0.00%     75.99% # Class of executed instruction
system.cpu1.op_class::MemRead                  297226     15.02%     91.01% # Class of executed instruction
system.cpu1.op_class::MemWrite                 177967      8.99%    100.00% # Class of executed instruction
system.cpu1.op_class::IprAccess                     0      0.00%    100.00% # Class of executed instruction
system.cpu1.op_class::InstPrefetch                  0      0.00%    100.00% # Class of executed instruction
system.cpu1.op_class::total                   1979056                       # Class of executed instruction
system.cpu2.apic_clk_domain.clock                8000                       # Clock period in ticks
system.cpu2.numCycles                      2530167498                       # number of cpu cycles simulated
system.cpu2.numWorkItemsStarted                     0                       # number of work items this cpu started
system.cpu2.numWorkItemsCompleted                   0                       # number of work items this cpu completed
system.cpu2.kern.inst.arm                           0                       # number of arm instructions executed
system.cpu2.kern.inst.quiesce                       0                       # number of quiesce instructions executed
system.cpu2.committedInsts                  533875127                       # Number of instructions committed
system.cpu2.committedOps                    709227350                       # Number of ops (including micro ops) committed
system.cpu2.num_int_alu_accesses            508849495                       # Number of integer alu accesses
system.cpu2.num_fp_alu_accesses             331101068                       # Number of float alu accesses
system.cpu2.num_func_calls                     434547                       # number of times a function call or return occured
system.cpu2.num_conditional_control_insts     31469425                       # number of instructions that are conditional controls
system.cpu2.num_int_insts                   508849495                       # number of integer instructions
system.cpu2.num_fp_insts                    331101068                       # number of float instructions
system.cpu2.num_int_register_reads         1070207084                       # number of times the integer registers were read
system.cpu2.num_int_register_writes         339881247                       # number of times the integer registers were written
system.cpu2.num_fp_register_reads           564014582                       # number of times the floating registers were read
system.cpu2.num_fp_register_writes          276695748                       # number of times the floating registers were written
system.cpu2.num_cc_register_reads           220308872                       # number of times the CC registers were read
system.cpu2.num_cc_register_writes          241372449                       # number of times the CC registers were written
system.cpu2.num_mem_refs                    152851189                       # number of memory refs
system.cpu2.num_load_insts                   94770630                       # Number of load instructions
system.cpu2.num_store_insts                  58080559                       # Number of store instructions
system.cpu2.num_idle_cycles              10258418.842341                       # Number of idle cycles
system.cpu2.num_busy_cycles              2519909079.157659                       # Number of busy cycles
system.cpu2.not_idle_fraction                0.995946                       # Percentage of non-idle cycles
system.cpu2.idle_fraction                    0.004054                       # Percentage of idle cycles
system.cpu2.Branches                         33883577                       # Number of branches fetched
system.cpu2.op_class::No_OpClass               955581      0.13%      0.13% # Class of executed instruction
system.cpu2.op_class::IntAlu                444109244     62.62%     62.75% # Class of executed instruction
system.cpu2.op_class::IntMult                   24728      0.00%     62.76% # Class of executed instruction
system.cpu2.op_class::IntDiv                   145178      0.02%     62.78% # Class of executed instruction
system.cpu2.op_class::FloatAdd              111149730     15.67%     78.45% # Class of executed instruction
system.cpu2.op_class::FloatCmp                      0      0.00%     78.45% # Class of executed instruction
system.cpu2.op_class::FloatCvt                      0      0.00%     78.45% # Class of executed instruction
system.cpu2.op_class::FloatMult                     0      0.00%     78.45% # Class of executed instruction
system.cpu2.op_class::FloatDiv                      0      0.00%     78.45% # Class of executed instruction
system.cpu2.op_class::FloatSqrt                     0      0.00%     78.45% # Class of executed instruction
system.cpu2.op_class::SimdAdd                       0      0.00%     78.45% # Class of executed instruction
system.cpu2.op_class::SimdAddAcc                    0      0.00%     78.45% # Class of executed instruction
system.cpu2.op_class::SimdAlu                       0      0.00%     78.45% # Class of executed instruction
system.cpu2.op_class::SimdCmp                       0      0.00%     78.45% # Class of executed instruction
system.cpu2.op_class::SimdCvt                       0      0.00%     78.45% # Class of executed instruction
system.cpu2.op_class::SimdMisc                      0      0.00%     78.45% # Class of executed instruction
system.cpu2.op_class::SimdMult                      0      0.00%     78.45% # Class of executed instruction
system.cpu2.op_class::SimdMultAcc                   0      0.00%     78.45% # Class of executed instruction
system.cpu2.op_class::SimdShift                     0      0.00%     78.45% # Class of executed instruction
system.cpu2.op_class::SimdShiftAcc                  0      0.00%     78.45% # Class of executed instruction
system.cpu2.op_class::SimdSqrt                      0      0.00%     78.45% # Class of executed instruction
system.cpu2.op_class::SimdFloatAdd                  0      0.00%     78.45% # Class of executed instruction
system.cpu2.op_class::SimdFloatAlu                  0      0.00%     78.45% # Class of executed instruction
system.cpu2.op_class::SimdFloatCmp                  0      0.00%     78.45% # Class of executed instruction
system.cpu2.op_class::SimdFloatCvt                  0      0.00%     78.45% # Class of executed instruction
system.cpu2.op_class::SimdFloatDiv                  0      0.00%     78.45% # Class of executed instruction
system.cpu2.op_class::SimdFloatMisc                 0      0.00%     78.45% # Class of executed instruction
system.cpu2.op_class::SimdFloatMult                 0      0.00%     78.45% # Class of executed instruction
system.cpu2.op_class::SimdFloatMultAcc              0      0.00%     78.45% # Class of executed instruction
system.cpu2.op_class::SimdFloatSqrt                 0      0.00%     78.45% # Class of executed instruction
system.cpu2.op_class::MemRead                94770630     13.36%     91.81% # Class of executed instruction
system.cpu2.op_class::MemWrite               58080559      8.19%    100.00% # Class of executed instruction
system.cpu2.op_class::IprAccess                     0      0.00%    100.00% # Class of executed instruction
system.cpu2.op_class::InstPrefetch                  0      0.00%    100.00% # Class of executed instruction
system.cpu2.op_class::total                 709235650                       # Class of executed instruction
system.cpu3.apic_clk_domain.clock                8000                       # Clock period in ticks
system.cpu3.numCycles                      2526957061                       # number of cpu cycles simulated
system.cpu3.numWorkItemsStarted                     0                       # number of work items this cpu started
system.cpu3.numWorkItemsCompleted                   0                       # number of work items this cpu completed
system.cpu3.kern.inst.arm                           0                       # number of arm instructions executed
system.cpu3.kern.inst.quiesce                       0                       # number of quiesce instructions executed
system.cpu3.committedInsts                     832223                       # Number of instructions committed
system.cpu3.committedOps                      1800272                       # Number of ops (including micro ops) committed
system.cpu3.num_int_alu_accesses              1761886                       # Number of integer alu accesses
system.cpu3.num_fp_alu_accesses                     0                       # Number of float alu accesses
system.cpu3.num_func_calls                      50490                       # number of times a function call or return occured
system.cpu3.num_conditional_control_insts       124145                       # number of instructions that are conditional controls
system.cpu3.num_int_insts                     1761886                       # number of integer instructions
system.cpu3.num_fp_insts                            0                       # number of float instructions
system.cpu3.num_int_register_reads            3578644                       # number of times the integer registers were read
system.cpu3.num_int_register_writes           1460778                       # number of times the integer registers were written
system.cpu3.num_fp_register_reads                   0                       # number of times the floating registers were read
system.cpu3.num_fp_register_writes                  0                       # number of times the floating registers were written
system.cpu3.num_cc_register_reads              995286                       # number of times the CC registers were read
system.cpu3.num_cc_register_writes             529108                       # number of times the CC registers were written
system.cpu3.num_mem_refs                       431559                       # number of memory refs
system.cpu3.num_load_insts                     268670                       # Number of load instructions
system.cpu3.num_store_insts                    162889                       # Number of store instructions
system.cpu3.num_idle_cycles              2521963271.672045                       # Number of idle cycles
system.cpu3.num_busy_cycles              4993789.327955                       # Number of busy cycles
system.cpu3.not_idle_fraction                0.001976                       # Percentage of non-idle cycles
system.cpu3.idle_fraction                    0.998024                       # Percentage of idle cycles
system.cpu3.Branches                           190941                       # Number of branches fetched
system.cpu3.op_class::No_OpClass                32216      1.79%      1.79% # Class of executed instruction
system.cpu3.op_class::IntAlu                  1321310     73.39%     75.18% # Class of executed instruction
system.cpu3.op_class::IntMult                    3738      0.21%     75.39% # Class of executed instruction
system.cpu3.op_class::IntDiv                    11452      0.64%     76.03% # Class of executed instruction
system.cpu3.op_class::FloatAdd                      0      0.00%     76.03% # Class of executed instruction
system.cpu3.op_class::FloatCmp                      0      0.00%     76.03% # Class of executed instruction
system.cpu3.op_class::FloatCvt                      0      0.00%     76.03% # Class of executed instruction
system.cpu3.op_class::FloatMult                     0      0.00%     76.03% # Class of executed instruction
system.cpu3.op_class::FloatDiv                      0      0.00%     76.03% # Class of executed instruction
system.cpu3.op_class::FloatSqrt                     0      0.00%     76.03% # Class of executed instruction
system.cpu3.op_class::SimdAdd                       0      0.00%     76.03% # Class of executed instruction
system.cpu3.op_class::SimdAddAcc                    0      0.00%     76.03% # Class of executed instruction
system.cpu3.op_class::SimdAlu                       0      0.00%     76.03% # Class of executed instruction
system.cpu3.op_class::SimdCmp                       0      0.00%     76.03% # Class of executed instruction
system.cpu3.op_class::SimdCvt                       0      0.00%     76.03% # Class of executed instruction
system.cpu3.op_class::SimdMisc                      0      0.00%     76.03% # Class of executed instruction
system.cpu3.op_class::SimdMult                      0      0.00%     76.03% # Class of executed instruction
system.cpu3.op_class::SimdMultAcc                   0      0.00%     76.03% # Class of executed instruction
system.cpu3.op_class::SimdShift                     0      0.00%     76.03% # Class of executed instruction
system.cpu3.op_class::SimdShiftAcc                  0      0.00%     76.03% # Class of executed instruction
system.cpu3.op_class::SimdSqrt                      0      0.00%     76.03% # Class of executed instruction
system.cpu3.op_class::SimdFloatAdd                  0      0.00%     76.03% # Class of executed instruction
system.cpu3.op_class::SimdFloatAlu                  0      0.00%     76.03% # Class of executed instruction
system.cpu3.op_class::SimdFloatCmp                  0      0.00%     76.03% # Class of executed instruction
system.cpu3.op_class::SimdFloatCvt                  0      0.00%     76.03% # Class of executed instruction
system.cpu3.op_class::SimdFloatDiv                  0      0.00%     76.03% # Class of executed instruction
system.cpu3.op_class::SimdFloatMisc                 0      0.00%     76.03% # Class of executed instruction
system.cpu3.op_class::SimdFloatMult                 0      0.00%     76.03% # Class of executed instruction
system.cpu3.op_class::SimdFloatMultAcc              0      0.00%     76.03% # Class of executed instruction
system.cpu3.op_class::SimdFloatSqrt                 0      0.00%     76.03% # Class of executed instruction
system.cpu3.op_class::MemRead                  268670     14.92%     90.95% # Class of executed instruction
system.cpu3.op_class::MemWrite                 162889      9.05%    100.00% # Class of executed instruction
system.cpu3.op_class::IprAccess                     0      0.00%    100.00% # Class of executed instruction
system.cpu3.op_class::InstPrefetch                  0      0.00%    100.00% # Class of executed instruction
system.cpu3.op_class::total                   1800275                       # Class of executed instruction
system.iobus.trans_dist::ReadReq                  715                       # Transaction distribution
system.iobus.trans_dist::ReadResp                 715                       # Transaction distribution
system.iobus.trans_dist::WriteReq                1541                       # Transaction distribution
system.iobus.trans_dist::WriteResp               1541                       # Transaction distribution
system.iobus.trans_dist::MessageReq                14                       # Transaction distribution
system.iobus.trans_dist::MessageResp               14                       # Transaction distribution
system.iobus.pkt_count_system.pc.south_bridge.io_apic.int_master::system.ruby.l0_cntrl0.sequencer.pio-slave-port            2                       # Packet count per connected master and slave (bytes)
system.iobus.pkt_count_system.pc.south_bridge.io_apic.int_master::system.ruby.l0_cntrl1.sequencer.pio-slave-port            4                       # Packet count per connected master and slave (bytes)
system.iobus.pkt_count_system.pc.south_bridge.io_apic.int_master::system.ruby.l0_cntrl2.sequencer.pio-slave-port            4                       # Packet count per connected master and slave (bytes)
system.iobus.pkt_count_system.pc.south_bridge.io_apic.int_master::system.ruby.l0_cntrl3.sequencer.pio-slave-port            2                       # Packet count per connected master and slave (bytes)
system.iobus.pkt_count_system.pc.south_bridge.io_apic.int_master::total           12                       # Packet count per connected master and slave (bytes)
system.iobus.pkt_count_system.ruby.l0_cntrl0.sequencer.mem-master-port::system.pc.south_bridge.io_apic.pio            6                       # Packet count per connected master and slave (bytes)
system.iobus.pkt_count_system.ruby.l0_cntrl0.sequencer.mem-master-port::system.pc.com_1.pio         1734                       # Packet count per connected master and slave (bytes)
system.iobus.pkt_count_system.ruby.l0_cntrl0.sequencer.mem-master-port::system.ruby.l0_cntrl0.sequencer.pio-slave-port          654                       # Packet count per connected master and slave (bytes)
system.iobus.pkt_count_system.ruby.l0_cntrl0.sequencer.mem-master-port::system.ruby.l0_cntrl1.sequencer.pio-slave-port            2                       # Packet count per connected master and slave (bytes)
system.iobus.pkt_count_system.ruby.l0_cntrl0.sequencer.mem-master-port::system.ruby.l0_cntrl2.sequencer.pio-slave-port            2                       # Packet count per connected master and slave (bytes)
system.iobus.pkt_count_system.ruby.l0_cntrl0.sequencer.mem-master-port::system.ruby.l0_cntrl3.sequencer.pio-slave-port            2                       # Packet count per connected master and slave (bytes)
system.iobus.pkt_count_system.ruby.l0_cntrl0.sequencer.mem-master-port::total         2400                       # Packet count per connected master and slave (bytes)
system.iobus.pkt_count_system.ruby.l0_cntrl1.sequencer.mem-master-port::system.pc.south_bridge.io_apic.pio           14                       # Packet count per connected master and slave (bytes)
system.iobus.pkt_count_system.ruby.l0_cntrl1.sequencer.mem-master-port::system.pc.com_1.pio          130                       # Packet count per connected master and slave (bytes)
system.iobus.pkt_count_system.ruby.l0_cntrl1.sequencer.mem-master-port::system.ruby.l0_cntrl1.sequencer.pio-slave-port          648                       # Packet count per connected master and slave (bytes)
system.iobus.pkt_count_system.ruby.l0_cntrl1.sequencer.mem-master-port::system.ruby.l0_cntrl2.sequencer.pio-slave-port            2                       # Packet count per connected master and slave (bytes)
system.iobus.pkt_count_system.ruby.l0_cntrl1.sequencer.mem-master-port::total          794                       # Packet count per connected master and slave (bytes)
system.iobus.pkt_count_system.ruby.l0_cntrl2.sequencer.mem-master-port::system.pc.south_bridge.io_apic.pio           16                       # Packet count per connected master and slave (bytes)
system.iobus.pkt_count_system.ruby.l0_cntrl2.sequencer.mem-master-port::system.ruby.l0_cntrl1.sequencer.pio-slave-port            4                       # Packet count per connected master and slave (bytes)
system.iobus.pkt_count_system.ruby.l0_cntrl2.sequencer.mem-master-port::system.ruby.l0_cntrl2.sequencer.pio-slave-port          658                       # Packet count per connected master and slave (bytes)
system.iobus.pkt_count_system.ruby.l0_cntrl2.sequencer.mem-master-port::system.ruby.l0_cntrl3.sequencer.pio-slave-port            2                       # Packet count per connected master and slave (bytes)
system.iobus.pkt_count_system.ruby.l0_cntrl2.sequencer.mem-master-port::total          680                       # Packet count per connected master and slave (bytes)
system.iobus.pkt_count_system.ruby.l0_cntrl3.sequencer.mem-master-port::system.pc.south_bridge.io_apic.pio            8                       # Packet count per connected master and slave (bytes)
system.iobus.pkt_count_system.ruby.l0_cntrl3.sequencer.mem-master-port::system.ruby.l0_cntrl0.sequencer.pio-slave-port            2                       # Packet count per connected master and slave (bytes)
system.iobus.pkt_count_system.ruby.l0_cntrl3.sequencer.mem-master-port::system.ruby.l0_cntrl3.sequencer.pio-slave-port          644                       # Packet count per connected master and slave (bytes)
system.iobus.pkt_count_system.ruby.l0_cntrl3.sequencer.mem-master-port::total          654                       # Packet count per connected master and slave (bytes)
system.iobus.pkt_count::total                    4540                       # Packet count per connected master and slave (bytes)
system.iobus.pkt_size_system.pc.south_bridge.io_apic.int_master::system.ruby.l0_cntrl0.sequencer.pio-slave-port            4                       # Cumulative packet size per connected master and slave (bytes)
system.iobus.pkt_size_system.pc.south_bridge.io_apic.int_master::system.ruby.l0_cntrl1.sequencer.pio-slave-port            8                       # Cumulative packet size per connected master and slave (bytes)
system.iobus.pkt_size_system.pc.south_bridge.io_apic.int_master::system.ruby.l0_cntrl2.sequencer.pio-slave-port            8                       # Cumulative packet size per connected master and slave (bytes)
system.iobus.pkt_size_system.pc.south_bridge.io_apic.int_master::system.ruby.l0_cntrl3.sequencer.pio-slave-port            4                       # Cumulative packet size per connected master and slave (bytes)
system.iobus.pkt_size_system.pc.south_bridge.io_apic.int_master::total           24                       # Cumulative packet size per connected master and slave (bytes)
system.iobus.pkt_size_system.ruby.l0_cntrl0.sequencer.mem-master-port::system.pc.south_bridge.io_apic.pio           12                       # Cumulative packet size per connected master and slave (bytes)
system.iobus.pkt_size_system.ruby.l0_cntrl0.sequencer.mem-master-port::system.pc.com_1.pio          867                       # Cumulative packet size per connected master and slave (bytes)
system.iobus.pkt_size_system.ruby.l0_cntrl0.sequencer.mem-master-port::system.ruby.l0_cntrl0.sequencer.pio-slave-port         1308                       # Cumulative packet size per connected master and slave (bytes)
system.iobus.pkt_size_system.ruby.l0_cntrl0.sequencer.mem-master-port::system.ruby.l0_cntrl1.sequencer.pio-slave-port            4                       # Cumulative packet size per connected master and slave (bytes)
system.iobus.pkt_size_system.ruby.l0_cntrl0.sequencer.mem-master-port::system.ruby.l0_cntrl2.sequencer.pio-slave-port            4                       # Cumulative packet size per connected master and slave (bytes)
system.iobus.pkt_size_system.ruby.l0_cntrl0.sequencer.mem-master-port::system.ruby.l0_cntrl3.sequencer.pio-slave-port            4                       # Cumulative packet size per connected master and slave (bytes)
system.iobus.pkt_size_system.ruby.l0_cntrl0.sequencer.mem-master-port::total         2199                       # Cumulative packet size per connected master and slave (bytes)
system.iobus.pkt_size_system.ruby.l0_cntrl1.sequencer.mem-master-port::system.pc.south_bridge.io_apic.pio           28                       # Cumulative packet size per connected master and slave (bytes)
system.iobus.pkt_size_system.ruby.l0_cntrl1.sequencer.mem-master-port::system.pc.com_1.pio           65                       # Cumulative packet size per connected master and slave (bytes)
system.iobus.pkt_size_system.ruby.l0_cntrl1.sequencer.mem-master-port::system.ruby.l0_cntrl1.sequencer.pio-slave-port         1296                       # Cumulative packet size per connected master and slave (bytes)
system.iobus.pkt_size_system.ruby.l0_cntrl1.sequencer.mem-master-port::system.ruby.l0_cntrl2.sequencer.pio-slave-port            4                       # Cumulative packet size per connected master and slave (bytes)
system.iobus.pkt_size_system.ruby.l0_cntrl1.sequencer.mem-master-port::total         1393                       # Cumulative packet size per connected master and slave (bytes)
system.iobus.pkt_size_system.ruby.l0_cntrl2.sequencer.mem-master-port::system.pc.south_bridge.io_apic.pio           32                       # Cumulative packet size per connected master and slave (bytes)
system.iobus.pkt_size_system.ruby.l0_cntrl2.sequencer.mem-master-port::system.ruby.l0_cntrl1.sequencer.pio-slave-port            8                       # Cumulative packet size per connected master and slave (bytes)
system.iobus.pkt_size_system.ruby.l0_cntrl2.sequencer.mem-master-port::system.ruby.l0_cntrl2.sequencer.pio-slave-port         1316                       # Cumulative packet size per connected master and slave (bytes)
system.iobus.pkt_size_system.ruby.l0_cntrl2.sequencer.mem-master-port::system.ruby.l0_cntrl3.sequencer.pio-slave-port            4                       # Cumulative packet size per connected master and slave (bytes)
system.iobus.pkt_size_system.ruby.l0_cntrl2.sequencer.mem-master-port::total         1360                       # Cumulative packet size per connected master and slave (bytes)
system.iobus.pkt_size_system.ruby.l0_cntrl3.sequencer.mem-master-port::system.pc.south_bridge.io_apic.pio           16                       # Cumulative packet size per connected master and slave (bytes)
system.iobus.pkt_size_system.ruby.l0_cntrl3.sequencer.mem-master-port::system.ruby.l0_cntrl0.sequencer.pio-slave-port            4                       # Cumulative packet size per connected master and slave (bytes)
system.iobus.pkt_size_system.ruby.l0_cntrl3.sequencer.mem-master-port::system.ruby.l0_cntrl3.sequencer.pio-slave-port         1288                       # Cumulative packet size per connected master and slave (bytes)
system.iobus.pkt_size_system.ruby.l0_cntrl3.sequencer.mem-master-port::total         1308                       # Cumulative packet size per connected master and slave (bytes)
system.iobus.pkt_size::total                     6284                       # Cumulative packet size per connected master and slave (bytes)
system.iobus.reqLayer8.occupancy                38496                       # Layer occupancy (ticks)
system.iobus.reqLayer8.utilization                0.0                       # Layer utilization (%)
system.iobus.reqLayer12.occupancy             1222000                       # Layer occupancy (ticks)
system.iobus.reqLayer12.utilization               0.0                       # Layer utilization (%)
system.iobus.reqLayer17.occupancy              750997                       # Layer occupancy (ticks)
system.iobus.reqLayer17.utilization               0.0                       # Layer utilization (%)
system.iobus.reqLayer18.occupancy              745000                       # Layer occupancy (ticks)
system.iobus.reqLayer18.utilization               0.0                       # Layer utilization (%)
system.iobus.reqLayer19.occupancy              849790                       # Layer occupancy (ticks)
system.iobus.reqLayer19.utilization               0.0                       # Layer utilization (%)
system.iobus.reqLayer20.occupancy              744000                       # Layer occupancy (ticks)
system.iobus.reqLayer20.utilization               0.0                       # Layer utilization (%)
system.iobus.respLayer0.occupancy                8500                       # Layer occupancy (ticks)
system.iobus.respLayer0.utilization               0.0                       # Layer utilization (%)
system.iobus.respLayer2.occupancy             2017500                       # Layer occupancy (ticks)
system.iobus.respLayer2.utilization               0.0                       # Layer utilization (%)
system.iobus.respLayer4.occupancy              610000                       # Layer occupancy (ticks)
system.iobus.respLayer4.utilization               0.0                       # Layer utilization (%)
system.iobus.respLayer6.occupancy              511500                       # Layer occupancy (ticks)
system.iobus.respLayer6.utilization               0.0                       # Layer utilization (%)
system.iobus.respLayer8.occupancy              491500                       # Layer occupancy (ticks)
system.iobus.respLayer8.utilization               0.0                       # Layer utilization (%)
system.pc.south_bridge.ide.disks.dma_read_full_pages            0                       # Number of full page size DMA reads (not PRD).
system.pc.south_bridge.ide.disks.dma_read_bytes            0                       # Number of bytes transfered via DMA reads (not PRD).
system.pc.south_bridge.ide.disks.dma_read_txs            0                       # Number of DMA read transactions (not PRD).
system.pc.south_bridge.ide.disks.dma_write_full_pages            0                       # Number of full page size DMA writes.
system.pc.south_bridge.ide.disks.dma_write_bytes            0                       # Number of bytes transfered via DMA writes.
system.pc.south_bridge.ide.disks.dma_write_txs            0                       # Number of DMA write transactions.
system.ruby.clk_domain.clock                      500                       # Clock period in ticks
system.ruby.delayHist::bucket_size                  4                       # delay histogram for all message
system.ruby.delayHist::max_bucket                  39                       # delay histogram for all message
system.ruby.delayHist::samples               80418562                       # delay histogram for all message
system.ruby.delayHist::mean                  0.415293                       # delay histogram for all message
system.ruby.delayHist::stdev                 1.775044                       # delay histogram for all message
system.ruby.delayHist                    |    76247033     94.81%     94.81% |        3642      0.00%     94.82% |     4166605      5.18%    100.00% |         340      0.00%    100.00% |         923      0.00%    100.00% |           6      0.00%    100.00% |          13      0.00%    100.00% |           0      0.00%    100.00% |           0      0.00%    100.00% |           0      0.00%    100.00% # delay histogram for all message
system.ruby.delayHist::total                 80418562                       # delay histogram for all message
system.ruby.outstanding_req_hist_seqr::bucket_size            1                      
system.ruby.outstanding_req_hist_seqr::max_bucket            9                      
system.ruby.outstanding_req_hist_seqr::samples    936624681                      
system.ruby.outstanding_req_hist_seqr::mean     1.000000                      
system.ruby.outstanding_req_hist_seqr::gmean     1.000000                      
system.ruby.outstanding_req_hist_seqr::stdev     0.000505                      
system.ruby.outstanding_req_hist_seqr    |           0      0.00%      0.00% |   936624442    100.00%    100.00% |         239      0.00%    100.00% |           0      0.00%    100.00% |           0      0.00%    100.00% |           0      0.00%    100.00% |           0      0.00%    100.00% |           0      0.00%    100.00% |           0      0.00%    100.00% |           0      0.00%    100.00%
system.ruby.outstanding_req_hist_seqr::total    936624681                      
system.ruby.latency_hist_seqr::bucket_size          256                      
system.ruby.latency_hist_seqr::max_bucket         2559                      
system.ruby.latency_hist_seqr::samples      936624681                      
system.ruby.latency_hist_seqr::mean          1.716685                      
system.ruby.latency_hist_seqr::gmean         1.084851                      
system.ruby.latency_hist_seqr::stdev        10.858536                      
system.ruby.latency_hist_seqr            |   936472712     99.98%     99.98% |       68557      0.01%     99.99% |       64982      0.01%    100.00% |        9931      0.00%    100.00% |        7238      0.00%    100.00% |         775      0.00%    100.00% |         441      0.00%    100.00% |          41      0.00%    100.00% |           4      0.00%    100.00% |           0      0.00%    100.00%
system.ruby.latency_hist_seqr::total        936624681                      
system.ruby.hit_latency_hist_seqr::bucket_size            1                      
system.ruby.hit_latency_hist_seqr::max_bucket            9                      
system.ruby.hit_latency_hist_seqr::samples    899661463                      
system.ruby.hit_latency_hist_seqr::mean             1                      
system.ruby.hit_latency_hist_seqr::gmean            1                      
[...]
system.ruby.L1Cache_Controller.Ack::total        17052                      
system.ruby.L1Cache_Controller.Ack_all   |        3729     38.65%     38.65% |        2221     23.02%     61.68% |        1903     19.73%     81.40% |        1794     18.60%    100.00%
system.ruby.L1Cache_Controller.Ack_all::total         9647                      
system.ruby.L1Cache_Controller.WB_Ack    |      143327      1.89%      1.89% |       29943      0.40%      2.29% |     7379117     97.48%     99.77% |       17607      0.23%    100.00%
system.ruby.L1Cache_Controller.WB_Ack::total      7569994                      
system.ruby.L1Cache_Controller.I.Load    |      150249      3.47%      3.47% |       48068      1.11%      4.58% |     4093713     94.58%     99.16% |       36306      0.84%    100.00%
system.ruby.L1Cache_Controller.I.Load::total      4328336                      
system.ruby.L1Cache_Controller.I.Store   |       38431      1.08%      1.08% |       15093      0.42%      1.50% |     3494292     98.25%     99.75% |        8827      0.25%    100.00%
system.ruby.L1Cache_Controller.I.Store::total      3556643                      
system.ruby.L1Cache_Controller.I.Inv     |        1814     18.76%     18.76% |        1226     12.68%     31.44% |        5563     57.53%     88.97% |        1067     11.03%    100.00%
system.ruby.L1Cache_Controller.I.Inv::total         9670                      
system.ruby.L1Cache_Controller.S.Load    |      226043     31.16%     31.16% |      105810     14.58%     45.74% |      295914     40.79%     86.53% |       97754     13.47%    100.00%
system.ruby.L1Cache_Controller.S.Load::total       725521                      
system.ruby.L1Cache_Controller.S.Store   |        2425     37.73%     37.73% |        1431     22.27%     60.00% |        1367     21.27%     81.27% |        1204     18.73%    100.00%
system.ruby.L1Cache_Controller.S.Store::total         6427                      
system.ruby.L1Cache_Controller.S.L0_Invalidate_Own |       24517      9.86%      9.86% |       11896      4.79%     14.65% |      204438     82.23%     96.88% |        7758      3.12%    100.00%
system.ruby.L1Cache_Controller.S.L0_Invalidate_Own::total       248609                      
system.ruby.L1Cache_Controller.S.L0_Invalidate_Else |        9970     29.24%     29.24% |       10975     32.19%     61.42% |        1251      3.67%     65.09% |       11903     34.91%    100.00%
system.ruby.L1Cache_Controller.S.L0_Invalidate_Else::total        34099                      
system.ruby.L1Cache_Controller.SS.Load   |        3536     39.57%     39.57% |        3895     43.59%     83.16% |         334      3.74%     86.90% |        1171     13.10%    100.00%
system.ruby.L1Cache_Controller.SS.Load::total         8936                      
system.ruby.L1Cache_Controller.SS.Store  |        1121     47.44%     47.44% |         664     28.10%     75.54% |          22      0.93%     76.47% |         556     23.53%    100.00%
system.ruby.L1Cache_Controller.SS.Store::total         2363                      
system.ruby.L1Cache_Controller.SS.Inv    |       11121     28.08%     28.08% |       13516     34.13%     62.22% |        1880      4.75%     66.96% |       13082     33.04%    100.00%
system.ruby.L1Cache_Controller.SS.Inv::total        39599                      
system.ruby.L1Cache_Controller.SS.L1_Replacement |       25030      9.93%      9.93% |       12629      5.01%     14.93% |      206229     81.78%     96.71% |        8290      3.29%    100.00%
system.ruby.L1Cache_Controller.SS.L1_Replacement::total       252178                      
system.ruby.L1Cache_Controller.E.WriteBack |      114267      2.89%      2.89% |       25331      0.64%      3.53% |     3803638     96.08%     99.61% |       15583      0.39%    100.00%
system.ruby.L1Cache_Controller.E.WriteBack::total      3958819                      
system.ruby.L1Cache_Controller.E.L0_Invalidate_Own |         992      1.18%      1.18% |          35      0.04%      1.22% |       83186     98.77%     99.99% |           9      0.01%    100.00%
system.ruby.L1Cache_Controller.E.L0_Invalidate_Own::total        84222                      
system.ruby.L1Cache_Controller.E.L0_Invalidate_Else |        1477     30.86%     30.86% |        2187     45.70%     76.56% |         107      2.24%     78.79% |        1015     21.21%    100.00%
system.ruby.L1Cache_Controller.E.L0_Invalidate_Else::total         4786                      
system.ruby.L1Cache_Controller.EE.Inv    |         492     33.40%     33.40% |         354     24.03%     57.43% |           8      0.54%     57.98% |         619     42.02%    100.00%
system.ruby.L1Cache_Controller.EE.Inv::total         1473                      
system.ruby.L1Cache_Controller.EE.L1_Replacement |         992      1.18%      1.18% |          35      0.04%      1.22% |       83185     98.77%     99.99% |           9      0.01%    100.00%
system.ruby.L1Cache_Controller.EE.L1_Replacement::total        84221                      
system.ruby.L1Cache_Controller.EE.Fwd_GETX |           3     27.27%     27.27% |           4     36.36%     63.64% |           3     27.27%     90.91% |           1      9.09%    100.00%
system.ruby.L1Cache_Controller.EE.Fwd_GETX::total           11                      
system.ruby.L1Cache_Controller.EE.Fwd_GETS |         894     31.42%     31.42% |        1659     58.31%     89.74% |          84      2.95%     92.69% |         208      7.31%    100.00%
system.ruby.L1Cache_Controller.EE.Fwd_GETS::total         2845                      
system.ruby.L1Cache_Controller.M.WriteBack |      364097      1.11%      1.11% |      133162      0.41%      1.52% |    32153172     98.29%     99.81% |       62492      0.19%    100.00%
system.ruby.L1Cache_Controller.M.WriteBack::total     32712923                      
system.ruby.L1Cache_Controller.M.L0_Invalidate_Own |        1238      3.23%      3.23% |         420      1.10%      4.33% |       36418     95.07%     99.40% |         231      0.60%    100.00%
system.ruby.L1Cache_Controller.M.L0_Invalidate_Own::total        38307                      
system.ruby.L1Cache_Controller.M.L0_Invalidate_Else |        3696     34.37%     34.37% |        3590     33.38%     67.75% |         296      2.75%     70.50% |        3172     29.50%    100.00%
system.ruby.L1Cache_Controller.M.L0_Invalidate_Else::total        10754                      
system.ruby.L1Cache_Controller.MM.Load   |      229261      1.11%      1.11% |       92715      0.45%      1.56% |    20318927     98.25%     99.81% |       39996      0.19%    100.00%
system.ruby.L1Cache_Controller.MM.Load::total     20680899                      
system.ruby.L1Cache_Controller.MM.Store  |       97775      1.15%      1.15% |       27283      0.32%      1.47% |     8375289     98.35%     99.82% |       15304      0.18%    100.00%
system.ruby.L1Cache_Controller.MM.Store::total      8515651                      
system.ruby.L1Cache_Controller.MM.Inv    |        8429     42.21%     42.21% |        5905     29.57%     71.78% |         392      1.96%     73.75% |        5242     26.25%    100.00%
system.ruby.L1Cache_Controller.MM.Inv::total        19968                      
system.ruby.L1Cache_Controller.MM.L1_Replacement |      142335      1.90%      1.90% |       29908      0.40%      2.30% |     7295932     97.46%     99.76% |       17598      0.24%    100.00%
system.ruby.L1Cache_Controller.MM.L1_Replacement::total      7485773                      
system.ruby.L1Cache_Controller.MM.Fwd_GETX |         386     20.94%     20.94% |         792     42.97%     63.92% |         338     18.34%     82.26% |         327     17.74%    100.00%
system.ruby.L1Cache_Controller.MM.Fwd_GETX::total         1843                      
system.ruby.L1Cache_Controller.MM.Fwd_GETS |        5477     31.94%     31.94% |        5939     34.64%     66.58% |        2450     14.29%     80.87% |        3281     19.13%    100.00%
system.ruby.L1Cache_Controller.MM.Fwd_GETS::total        17147                      
system.ruby.L1Cache_Controller.IS.Data_Exclusive |      116714      2.88%      2.88% |       27554      0.68%      3.56% |     3886946     96.03%     99.59% |       16605      0.41%    100.00%
system.ruby.L1Cache_Controller.IS.Data_Exclusive::total      4047819                      
system.ruby.L1Cache_Controller.IS.DataS_fromL1 |        6692     33.47%     33.47% |        3696     18.49%     51.96% |        3258     16.30%     68.26% |        6346     31.74%    100.00%
system.ruby.L1Cache_Controller.IS.DataS_fromL1::total        19992                      
system.ruby.L1Cache_Controller.IS.Data_all_Acks |       26843     10.30%     10.30% |       16818      6.46%     16.76% |      203509     78.11%     94.87% |       13355      5.13%    100.00%
system.ruby.L1Cache_Controller.IS.Data_all_Acks::total       260525                      
system.ruby.L1Cache_Controller.IM.Data   |         183     21.33%     21.33% |         126     14.69%     36.01% |         515     60.02%     96.04% |          34      3.96%    100.00%
system.ruby.L1Cache_Controller.IM.Data::total          858                      
system.ruby.L1Cache_Controller.IM.Data_all_Acks |       38248      1.08%      1.08% |       14967      0.42%      1.50% |     3493778     98.26%     99.75% |        8793      0.25%    100.00%
system.ruby.L1Cache_Controller.IM.Data_all_Acks::total      3555786                      
system.ruby.L1Cache_Controller.SM.Inv    |           0      0.00%      0.00% |           0      0.00%      0.00% |           1    100.00%    100.00% |           0      0.00%    100.00%
system.ruby.L1Cache_Controller.SM.Inv::total            1                      
system.ruby.L1Cache_Controller.SM.Ack    |        7986     46.83%     46.83% |        3193     18.73%     65.56% |        3035     17.80%     83.36% |        2838     16.64%    100.00%
system.ruby.L1Cache_Controller.SM.Ack::total        17052                      
system.ruby.L1Cache_Controller.SM.Ack_all |        3729     38.65%     38.65% |        2221     23.02%     61.68% |        1903     19.73%     81.40% |        1794     18.60%    100.00%
system.ruby.L1Cache_Controller.SM.Ack_all::total         9647                      
system.ruby.L1Cache_Controller.M_I.WB_Ack |      143327      1.89%      1.89% |       29943      0.40%      2.29% |     7379117     97.48%     99.77% |       17607      0.23%    100.00%
system.ruby.L1Cache_Controller.M_I.WB_Ack::total      7569994                      
system.ruby.L1Cache_Controller.S_IL0.Store |           0      0.00%      0.00% |           1     50.00%     50.00% |           1     50.00%    100.00% |           0      0.00%    100.00%
system.ruby.L1Cache_Controller.S_IL0.Store::total            2                      
system.ruby.L1Cache_Controller.S_IL0.L0_Invalidate_Own |       24517      9.86%      9.86% |       11896      4.79%     14.65% |      204438     82.23%     96.88% |        7758      3.12%    100.00%
system.ruby.L1Cache_Controller.S_IL0.L0_Invalidate_Own::total       248609                      
system.ruby.L1Cache_Controller.S_IL0.L0_Invalidate_Else |        9970     29.24%     29.24% |       10975     32.19%     61.42% |        1251      3.67%     65.09% |       11903     34.91%    100.00%
system.ruby.L1Cache_Controller.S_IL0.L0_Invalidate_Else::total        34099                      
system.ruby.L1Cache_Controller.S_IL0.L0_Ack |       34487     12.20%     12.20% |       22871      8.09%     20.29% |      205689     72.76%     93.05% |       19661      6.95%    100.00%
system.ruby.L1Cache_Controller.S_IL0.L0_Ack::total       282708                      
system.ruby.L1Cache_Controller.E_IL0.WriteBack |           0      0.00%      0.00% |           1    100.00%    100.00% |           0      0.00%    100.00% |           0      0.00%    100.00%
system.ruby.L1Cache_Controller.E_IL0.WriteBack::total            1                      
system.ruby.L1Cache_Controller.E_IL0.L0_DataAck |          88     19.26%     19.26% |         169     36.98%     56.24% |          13      2.84%     59.08% |         187     40.92%    100.00%
system.ruby.L1Cache_Controller.E_IL0.L0_DataAck::total          457                      
system.ruby.L1Cache_Controller.E_IL0.L0_Invalidate_Own |         992      1.18%      1.18% |          35      0.04%      1.22% |       83186     98.77%     99.99% |           9      0.01%    100.00%
system.ruby.L1Cache_Controller.E_IL0.L0_Invalidate_Own::total        84222                      
system.ruby.L1Cache_Controller.E_IL0.L0_Invalidate_Else |        1477     30.86%     30.86% |        2187     45.70%     76.56% |         107      2.24%     78.79% |        1015     21.21%    100.00%
system.ruby.L1Cache_Controller.E_IL0.L0_Invalidate_Else::total         4786                      
system.ruby.L1Cache_Controller.E_IL0.L0_Ack |        2381      2.69%      2.69% |        2052      2.32%      5.01% |       83280     94.05%     99.05% |         837      0.95%    100.00%
system.ruby.L1Cache_Controller.E_IL0.L0_Ack::total        88550                      
system.ruby.L1Cache_Controller.M_IL0.L0_DataAck |        2982     31.14%     31.14% |        2744     28.65%     59.80% |        1108     11.57%     71.37% |        2742     28.63%    100.00%
system.ruby.L1Cache_Controller.M_IL0.L0_DataAck::total         9576                      
system.ruby.L1Cache_Controller.M_IL0.L0_Invalidate_Own |        1238      3.23%      3.23% |         420      1.10%      4.33% |       36418     95.07%     99.40% |         231      0.60%    100.00%
system.ruby.L1Cache_Controller.M_IL0.L0_Invalidate_Own::total        38307                      
system.ruby.L1Cache_Controller.M_IL0.L0_Invalidate_Else |        3696     34.37%     34.37% |        3590     33.38%     67.75% |         296      2.75%     70.50% |        3172     29.50%    100.00%
system.ruby.L1Cache_Controller.M_IL0.L0_Invalidate_Else::total        10754                      
system.ruby.L1Cache_Controller.M_IL0.L0_Ack |        1952      4.94%      4.94% |        1266      3.21%      8.15% |       35606     90.18%     98.33% |         661      1.67%    100.00%
system.ruby.L1Cache_Controller.M_IL0.L0_Ack::total        39485                      
system.ruby.L1Cache_Controller.MM_IL0.Fwd_GETS |           0      0.00%      0.00% |           1    100.00%    100.00% |           0      0.00%    100.00% |           0      0.00%    100.00%
system.ruby.L1Cache_Controller.MM_IL0.Fwd_GETS::total            1                      
system.ruby.L1Cache_Controller.MM_IL0.L0_Ack |           0      0.00%      0.00% |           1    100.00%    100.00% |           0      0.00%    100.00% |           0      0.00%    100.00%
system.ruby.L1Cache_Controller.MM_IL0.L0_Ack::total            1                      
system.ruby.L2Cache_Controller.L1_GETS        4328532      0.00%      0.00%
system.ruby.L2Cache_Controller.L1_GETX        3556648      0.00%      0.00%
system.ruby.L2Cache_Controller.L1_UPGRADE         8790      0.00%      0.00%
system.ruby.L2Cache_Controller.L1_PUTX        7569994      0.00%      0.00%
system.ruby.L2Cache_Controller.L2_Replacement      1595408      0.00%      0.00%
system.ruby.L2Cache_Controller.L2_Replacement_clean      1106762      0.00%      0.00%
system.ruby.L2Cache_Controller.Mem_Data       2710215      0.00%      0.00%
system.ruby.L2Cache_Controller.Mem_Ack        2702178      0.00%      0.00%
system.ruby.L2Cache_Controller.WB_Data          20235      0.00%      0.00%
system.ruby.L2Cache_Controller.WB_Data_clean        19725      0.00%      0.00%
system.ruby.L2Cache_Controller.Ack              21411      0.00%      0.00%
system.ruby.L2Cache_Controller.Ack_all          11422      0.00%      0.00%
system.ruby.L2Cache_Controller.Unblock          19992      0.00%      0.00%
system.ruby.L2Cache_Controller.Exclusive_Unblock      7613252      0.00%      0.00%
system.ruby.L2Cache_Controller.MEM_Inv             16      0.00%      0.00%
system.ruby.L2Cache_Controller.NP.L1_GETS      1653651      0.00%      0.00%
system.ruby.L2Cache_Controller.NP.L1_GETX      1056564      0.00%      0.00%
system.ruby.L2Cache_Controller.SS.L1_GETS       260461      0.00%      0.00%
system.ruby.L2Cache_Controller.SS.L1_GETX          858      0.00%      0.00%
system.ruby.L2Cache_Controller.SS.L1_UPGRADE         8789      0.00%      0.00%
system.ruby.L2Cache_Controller.SS.L2_Replacement          691      0.00%      0.00%
system.ruby.L2Cache_Controller.SS.L2_Replacement_clean         9258      0.00%      0.00%
system.ruby.L2Cache_Controller.M.L1_GETS      2394200      0.00%      0.00%
system.ruby.L2Cache_Controller.M.L1_GETX      2497368      0.00%      0.00%
system.ruby.L2Cache_Controller.M.L2_Replacement      1593884      0.00%      0.00%
system.ruby.L2Cache_Controller.M.L2_Replacement_clean      1076898      0.00%      0.00%
system.ruby.L2Cache_Controller.M.MEM_Inv            6      0.00%      0.00%
system.ruby.L2Cache_Controller.MT.L1_GETS        19992      0.00%      0.00%
system.ruby.L2Cache_Controller.MT.L1_GETX         1854      0.00%      0.00%
system.ruby.L2Cache_Controller.MT.L1_PUTX      7569994      0.00%      0.00%
system.ruby.L2Cache_Controller.MT.L2_Replacement          833      0.00%      0.00%
system.ruby.L2Cache_Controller.MT.L2_Replacement_clean        20606      0.00%      0.00%
system.ruby.L2Cache_Controller.MT.MEM_Inv            2      0.00%      0.00%
system.ruby.L2Cache_Controller.M_I.L1_GETS            1      0.00%      0.00%
system.ruby.L2Cache_Controller.M_I.Mem_Ack      2702178      0.00%      0.00%
system.ruby.L2Cache_Controller.M_I.MEM_Inv            6      0.00%      0.00%
system.ruby.L2Cache_Controller.MT_I.WB_Data          684      0.00%      0.00%
system.ruby.L2Cache_Controller.MT_I.WB_Data_clean          148      0.00%      0.00%
system.ruby.L2Cache_Controller.MT_I.Ack_all            3      0.00%      0.00%
system.ruby.L2Cache_Controller.MT_I.MEM_Inv            2      0.00%      0.00%
system.ruby.L2Cache_Controller.MCT_I.WB_Data        11490      0.00%      0.00%
system.ruby.L2Cache_Controller.MCT_I.WB_Data_clean         7646      0.00%      0.00%
system.ruby.L2Cache_Controller.MCT_I.Ack_all         1470      0.00%      0.00%
system.ruby.L2Cache_Controller.I_I.Ack          20571      0.00%      0.00%
system.ruby.L2Cache_Controller.I_I.Ack_all         9258      0.00%      0.00%
system.ruby.L2Cache_Controller.S_I.Ack            840      0.00%      0.00%
system.ruby.L2Cache_Controller.S_I.Ack_all          691      0.00%      0.00%
system.ruby.L2Cache_Controller.ISS.L1_GETS           32      0.00%      0.00%
system.ruby.L2Cache_Controller.ISS.Mem_Data      1653619      0.00%      0.00%
system.ruby.L2Cache_Controller.IS.Mem_Data           32      0.00%      0.00%
system.ruby.L2Cache_Controller.IM.Mem_Data      1056564      0.00%      0.00%
system.ruby.L2Cache_Controller.SS_MB.L1_GETS          130      0.00%      0.00%
system.ruby.L2Cache_Controller.SS_MB.L1_GETX            3      0.00%      0.00%
system.ruby.L2Cache_Controller.SS_MB.L1_UPGRADE            1      0.00%      0.00%
system.ruby.L2Cache_Controller.SS_MB.Exclusive_Unblock         9647      0.00%      0.00%
system.ruby.L2Cache_Controller.MT_MB.L1_GETS           58      0.00%      0.00%
system.ruby.L2Cache_Controller.MT_MB.L1_GETX            1      0.00%      0.00%
system.ruby.L2Cache_Controller.MT_MB.Exclusive_Unblock      7603605      0.00%      0.00%
system.ruby.L2Cache_Controller.MT_IIB.L1_GETS            7      0.00%      0.00%
system.ruby.L2Cache_Controller.MT_IIB.WB_Data         8051      0.00%      0.00%
system.ruby.L2Cache_Controller.MT_IIB.WB_Data_clean        11899      0.00%      0.00%
system.ruby.L2Cache_Controller.MT_IIB.Unblock           42      0.00%      0.00%
system.ruby.L2Cache_Controller.MT_IB.WB_Data           10      0.00%      0.00%
system.ruby.L2Cache_Controller.MT_IB.WB_Data_clean           32      0.00%      0.00%
system.ruby.L2Cache_Controller.MT_SB.Unblock        19950      0.00%      0.00%

---------- End Simulation Statistics   ----------
