
---------- Begin Simulation Statistics ----------
sim_seconds                                  2.952187                       # Number of seconds simulated
sim_ticks                                2952186700000                       # Number of ticks simulated
final_tick                               54818467483001                       # Number of ticks from beginning of simulation (restored from checkpoints and never reset)
sim_freq                                 1000000000000                       # Frequency of simulated ticks
host_inst_rate                                 130786                       # Simulator instruction rate (inst/s)
host_op_rate                                   219196                       # Simulator op (including micro ops) rate (op/s)
host_tick_rate                              251782197                       # Simulator tick rate (ticks/s)
host_mem_usage                                1837896                       # Number of bytes of host memory used
host_seconds                                 11725.16                       # Real time elapsed on the host
sim_insts                                  1533483146                       # Number of instructions simulated
sim_ops                                    2570106279                       # Number of ops (including micro ops) simulated
system.voltage_domain.voltage                       1                       # Voltage in Volts
system.clk_domain.clock                          1000                       # Clock period in ticks
system.mem_ctrls.bytes_read::ruby.dir_cntrl0     12927424                       # Number of bytes read from this memory
system.mem_ctrls.bytes_read::total           12927424                       # Number of bytes read from this memory
system.mem_ctrls.bytes_written::ruby.dir_cntrl0      1695616                       # Number of bytes written to this memory
system.mem_ctrls.bytes_written::total         1695616                       # Number of bytes written to this memory
system.mem_ctrls.num_reads::ruby.dir_cntrl0       201991                       # Number of read requests responded to by this memory
system.mem_ctrls.num_reads::total              201991                       # Number of read requests responded to by this memory
system.mem_ctrls.num_writes::ruby.dir_cntrl0        26494                       # Number of write requests responded to by this memory
system.mem_ctrls.num_writes::total              26494                       # Number of write requests responded to by this memory
system.mem_ctrls.bw_read::ruby.dir_cntrl0      4378932                       # Total read bandwidth from this memory (bytes/s)
system.mem_ctrls.bw_read::total               4378932                       # Total read bandwidth from this memory (bytes/s)
system.mem_ctrls.bw_write::ruby.dir_cntrl0       574359                       # Write bandwidth from this memory (bytes/s)
system.mem_ctrls.bw_write::total               574359                       # Write bandwidth from this memory (bytes/s)
system.mem_ctrls.bw_total::ruby.dir_cntrl0      4953291                       # Total bandwidth to/from this memory (bytes/s)
system.mem_ctrls.bw_total::total              4953291                       # Total bandwidth to/from this memory (bytes/s)
system.mem_ctrls.readReqs                      201991                       # Number of read requests accepted
system.mem_ctrls.writeReqs                      26494                       # Number of write requests accepted
system.mem_ctrls.readBursts                    201991                       # Number of DRAM read bursts, including those serviced by the write queue
system.mem_ctrls.writeBursts                    26494                       # Number of DRAM write bursts, including those merged in the write queue
system.mem_ctrls.bytesReadDRAM               12663808                       # Total number of bytes read from DRAM
system.mem_ctrls.bytesReadWrQ                  263616                       # Total number of bytes read from write queue
system.mem_ctrls.bytesWritten                 1606272                       # Total number of bytes written to DRAM
system.mem_ctrls.bytesReadSys                12927424                       # Total read bytes from the system interface side
system.mem_ctrls.bytesWrittenSys              1695616                       # Total written bytes from the system interface side
system.mem_ctrls.servicedByWrQ                   4119                       # Number of DRAM read bursts serviced by the write queue
system.mem_ctrls.mergedWrBursts                  1391                       # Number of DRAM write bursts merged with an existing one
system.mem_ctrls.neitherReadNorWriteReqs            0                       # Number of requests that are neither read nor write
system.mem_ctrls.perBankRdBursts::0             14317                       # Per bank write bursts
system.mem_ctrls.perBankRdBursts::1             12589                       # Per bank write bursts
system.mem_ctrls.perBankRdBursts::2             12776                       # Per bank write bursts
system.mem_ctrls.perBankRdBursts::3             11217                       # Per bank write bursts
system.mem_ctrls.perBankRdBursts::4             10908                       # Per bank write bursts
system.mem_ctrls.perBankRdBursts::5             11915                       # Per bank write bursts
system.mem_ctrls.perBankRdBursts::6             14297                       # Per bank write bursts
system.mem_ctrls.perBankRdBursts::7             12789                       # Per bank write bursts
system.mem_ctrls.perBankRdBursts::8             14310                       # Per bank write bursts
system.mem_ctrls.perBankRdBursts::9             12465                       # Per bank write bursts
system.mem_ctrls.perBankRdBursts::10            11829                       # Per bank write bursts
system.mem_ctrls.perBankRdBursts::11            10346                       # Per bank write bursts
system.mem_ctrls.perBankRdBursts::12            10208                       # Per bank write bursts
system.mem_ctrls.perBankRdBursts::13            11994                       # Per bank write bursts
system.mem_ctrls.perBankRdBursts::14            13666                       # Per bank write bursts
system.mem_ctrls.perBankRdBursts::15            12246                       # Per bank write bursts
system.mem_ctrls.perBankWrBursts::0              1782                       # Per bank write bursts
system.mem_ctrls.perBankWrBursts::1              2134                       # Per bank write bursts
system.mem_ctrls.perBankWrBursts::2              1573                       # Per bank write bursts
system.mem_ctrls.perBankWrBursts::3               952                       # Per bank write bursts
system.mem_ctrls.perBankWrBursts::4              1459                       # Per bank write bursts
system.mem_ctrls.perBankWrBursts::5              1571                       # Per bank write bursts
system.mem_ctrls.perBankWrBursts::6              1999                       # Per bank write bursts
system.mem_ctrls.perBankWrBursts::7              1470                       # Per bank write bursts
system.mem_ctrls.perBankWrBursts::8              2398                       # Per bank write bursts
system.mem_ctrls.perBankWrBursts::9              1598                       # Per bank write bursts
system.mem_ctrls.perBankWrBursts::10             1558                       # Per bank write bursts
system.mem_ctrls.perBankWrBursts::11             1251                       # Per bank write bursts
system.mem_ctrls.perBankWrBursts::12             1385                       # Per bank write bursts
system.mem_ctrls.perBankWrBursts::13              948                       # Per bank write bursts
system.mem_ctrls.perBankWrBursts::14             1693                       # Per bank write bursts
system.mem_ctrls.perBankWrBursts::15             1327                       # Per bank write bursts
system.mem_ctrls.numRdRetry                         0                       # Number of times read queue was full causing retry
system.mem_ctrls.numWrRetry                         0                       # Number of times write queue was full causing retry
system.mem_ctrls.totGap                  2952186853000                       # Total gap between requests
system.mem_ctrls.readPktSize::0                     0                       # Read request sizes (log2)
system.mem_ctrls.readPktSize::1                     0                       # Read request sizes (log2)
system.mem_ctrls.readPktSize::2                     0                       # Read request sizes (log2)
system.mem_ctrls.readPktSize::3                     0                       # Read request sizes (log2)
system.mem_ctrls.readPktSize::4                     0                       # Read request sizes (log2)
system.mem_ctrls.readPktSize::5                     0                       # Read request sizes (log2)
system.mem_ctrls.readPktSize::6                201991                       # Read request sizes (log2)
system.mem_ctrls.writePktSize::0                    0                       # Write request sizes (log2)
system.mem_ctrls.writePktSize::1                    0                       # Write request sizes (log2)
system.mem_ctrls.writePktSize::2                    0                       # Write request sizes (log2)
system.mem_ctrls.writePktSize::3                    0                       # Write request sizes (log2)
system.mem_ctrls.writePktSize::4                    0                       # Write request sizes (log2)
system.mem_ctrls.writePktSize::5                    0                       # Write request sizes (log2)
system.mem_ctrls.writePktSize::6                26494                       # Write request sizes (log2)
system.mem_ctrls.rdQLenPdf::0                  196818                       # What read queue length does an incoming req see
system.mem_ctrls.rdQLenPdf::1                    1039                       # What read queue length does an incoming req see
system.mem_ctrls.rdQLenPdf::2                      15                       # What read queue length does an incoming req see
system.mem_ctrls.rdQLenPdf::3                       0                       # What read queue length does an incoming req see
system.mem_ctrls.rdQLenPdf::4                       0                       # What read queue length does an incoming req see
system.mem_ctrls.rdQLenPdf::5                       0                       # What read queue length does an incoming req see
system.mem_ctrls.rdQLenPdf::6                       0                       # What read queue length does an incoming req see
system.mem_ctrls.rdQLenPdf::7                       0                       # What read queue length does an incoming req see
system.mem_ctrls.rdQLenPdf::8                       0                       # What read queue length does an incoming req see
system.mem_ctrls.rdQLenPdf::9                       0                       # What read queue length does an incoming req see
system.mem_ctrls.rdQLenPdf::10                      0                       # What read queue length does an incoming req see
system.mem_ctrls.rdQLenPdf::11                      0                       # What read queue length does an incoming req see
system.mem_ctrls.rdQLenPdf::12                      0                       # What read queue length does an incoming req see
system.mem_ctrls.rdQLenPdf::13                      0                       # What read queue length does an incoming req see
system.mem_ctrls.rdQLenPdf::14                      0                       # What read queue length does an incoming req see
system.mem_ctrls.rdQLenPdf::15                      0                       # What read queue length does an incoming req see
system.mem_ctrls.rdQLenPdf::16                      0                       # What read queue length does an incoming req see
system.mem_ctrls.rdQLenPdf::17                      0                       # What read queue length does an incoming req see
system.mem_ctrls.rdQLenPdf::18                      0                       # What read queue length does an incoming req see
system.mem_ctrls.rdQLenPdf::19                      0                       # What read queue length does an incoming req see
system.mem_ctrls.rdQLenPdf::20                      0                       # What read queue length does an incoming req see
system.mem_ctrls.rdQLenPdf::21                      0                       # What read queue length does an incoming req see
system.mem_ctrls.rdQLenPdf::22                      0                       # What read queue length does an incoming req see
system.mem_ctrls.rdQLenPdf::23                      0                       # What read queue length does an incoming req see
system.mem_ctrls.rdQLenPdf::24                      0                       # What read queue length does an incoming req see
system.mem_ctrls.rdQLenPdf::25                      0                       # What read queue length does an incoming req see
system.mem_ctrls.rdQLenPdf::26                      0                       # What read queue length does an incoming req see
system.mem_ctrls.rdQLenPdf::27                      0                       # What read queue length does an incoming req see
system.mem_ctrls.rdQLenPdf::28                      0                       # What read queue length does an incoming req see
system.mem_ctrls.rdQLenPdf::29                      0                       # What read queue length does an incoming req see
system.mem_ctrls.rdQLenPdf::30                      0                       # What read queue length does an incoming req see
system.mem_ctrls.rdQLenPdf::31                      0                       # What read queue length does an incoming req see
system.mem_ctrls.wrQLenPdf::0                       0                       # What write queue length does an incoming req see
system.mem_ctrls.wrQLenPdf::1                       0                       # What write queue length does an incoming req see
system.mem_ctrls.wrQLenPdf::2                       0                       # What write queue length does an incoming req see
system.mem_ctrls.wrQLenPdf::3                       0                       # What write queue length does an incoming req see
system.mem_ctrls.wrQLenPdf::4                       0                       # What write queue length does an incoming req see
system.mem_ctrls.wrQLenPdf::5                       0                       # What write queue length does an incoming req see
system.mem_ctrls.wrQLenPdf::6                       0                       # What write queue length does an incoming req see
system.mem_ctrls.wrQLenPdf::7                       0                       # What write queue length does an incoming req see
system.mem_ctrls.wrQLenPdf::8                       0                       # What write queue length does an incoming req see
system.mem_ctrls.wrQLenPdf::9                       0                       # What write queue length does an incoming req see
system.mem_ctrls.wrQLenPdf::10                      0                       # What write queue length does an incoming req see
system.mem_ctrls.wrQLenPdf::11                      0                       # What write queue length does an incoming req see
system.mem_ctrls.wrQLenPdf::12                      0                       # What write queue length does an incoming req see
system.mem_ctrls.wrQLenPdf::13                      0                       # What write queue length does an incoming req see
system.mem_ctrls.wrQLenPdf::14                      0                       # What write queue length does an incoming req see
system.mem_ctrls.wrQLenPdf::15                    390                       # What write queue length does an incoming req see
system.mem_ctrls.wrQLenPdf::16                    444                       # What write queue length does an incoming req see
system.mem_ctrls.wrQLenPdf::17                   1467                       # What write queue length does an incoming req see
system.mem_ctrls.wrQLenPdf::18                   1532                       # What write queue length does an incoming req see
system.mem_ctrls.wrQLenPdf::19                   1516                       # What write queue length does an incoming req see
system.mem_ctrls.wrQLenPdf::20                   1569                       # What write queue length does an incoming req see
system.mem_ctrls.wrQLenPdf::21                   1541                       # What write queue length does an incoming req see
system.mem_ctrls.wrQLenPdf::22                   1508                       # What write queue length does an incoming req see
system.mem_ctrls.wrQLenPdf::23                   1554                       # What write queue length does an incoming req see
system.mem_ctrls.wrQLenPdf::24                   1543                       # What write queue length does an incoming req see
system.mem_ctrls.wrQLenPdf::25                   1510                       # What write queue length does an incoming req see
system.mem_ctrls.wrQLenPdf::26                   1518                       # What write queue length does an incoming req see
system.mem_ctrls.wrQLenPdf::27                   1514                       # What write queue length does an incoming req see
system.mem_ctrls.wrQLenPdf::28                   1509                       # What write queue length does an incoming req see
system.mem_ctrls.wrQLenPdf::29                   1479                       # What write queue length does an incoming req see
system.mem_ctrls.wrQLenPdf::30                   1484                       # What write queue length does an incoming req see
system.mem_ctrls.wrQLenPdf::31                   1489                       # What write queue length does an incoming req see
system.mem_ctrls.wrQLenPdf::32                   1477                       # What write queue length does an incoming req see
system.mem_ctrls.wrQLenPdf::33                     10                       # What write queue length does an incoming req see
system.mem_ctrls.wrQLenPdf::34                      8                       # What write queue length does an incoming req see
system.mem_ctrls.wrQLenPdf::35                      7                       # What write queue length does an incoming req see
system.mem_ctrls.wrQLenPdf::36                      7                       # What write queue length does an incoming req see
system.mem_ctrls.wrQLenPdf::37                      9                       # What write queue length does an incoming req see
system.mem_ctrls.wrQLenPdf::38                      6                       # What write queue length does an incoming req see
system.mem_ctrls.wrQLenPdf::39                      4                       # What write queue length does an incoming req see
system.mem_ctrls.wrQLenPdf::40                      4                       # What write queue length does an incoming req see
system.mem_ctrls.wrQLenPdf::41                      2                       # What write queue length does an incoming req see
system.mem_ctrls.wrQLenPdf::42                      1                       # What write queue length does an incoming req see
system.mem_ctrls.wrQLenPdf::43                      1                       # What write queue length does an incoming req see
system.mem_ctrls.wrQLenPdf::44                      0                       # What write queue length does an incoming req see
system.mem_ctrls.wrQLenPdf::45                      0                       # What write queue length does an incoming req see
system.mem_ctrls.wrQLenPdf::46                      0                       # What write queue length does an incoming req see
system.mem_ctrls.wrQLenPdf::47                      0                       # What write queue length does an incoming req see
system.mem_ctrls.wrQLenPdf::48                      0                       # What write queue length does an incoming req see
system.mem_ctrls.wrQLenPdf::49                      0                       # What write queue length does an incoming req see
system.mem_ctrls.wrQLenPdf::50                      0                       # What write queue length does an incoming req see
system.mem_ctrls.wrQLenPdf::51                      0                       # What write queue length does an incoming req see
system.mem_ctrls.wrQLenPdf::52                      0                       # What write queue length does an incoming req see
system.mem_ctrls.wrQLenPdf::53                      0                       # What write queue length does an incoming req see
system.mem_ctrls.wrQLenPdf::54                      0                       # What write queue length does an incoming req see
system.mem_ctrls.wrQLenPdf::55                      0                       # What write queue length does an incoming req see
system.mem_ctrls.wrQLenPdf::56                      0                       # What write queue length does an incoming req see
system.mem_ctrls.wrQLenPdf::57                      0                       # What write queue length does an incoming req see
system.mem_ctrls.wrQLenPdf::58                      0                       # What write queue length does an incoming req see
system.mem_ctrls.wrQLenPdf::59                      0                       # What write queue length does an incoming req see
system.mem_ctrls.wrQLenPdf::60                      0                       # What write queue length does an incoming req see
system.mem_ctrls.wrQLenPdf::61                      0                       # What write queue length does an incoming req see
system.mem_ctrls.wrQLenPdf::62                      0                       # What write queue length does an incoming req see
system.mem_ctrls.wrQLenPdf::63                      0                       # What write queue length does an incoming req see
system.mem_ctrls.bytesPerActivate::samples        69467                       # Bytes accessed per row activation
system.mem_ctrls.bytesPerActivate::mean    205.427037                       # Bytes accessed per row activation
system.mem_ctrls.bytesPerActivate::gmean   118.674496                       # Bytes accessed per row activation
system.mem_ctrls.bytesPerActivate::stdev   283.936792                       # Bytes accessed per row activation
system.mem_ctrls.bytesPerActivate::0-127        40465     58.25%     58.25% # Bytes accessed per row activation
system.mem_ctrls.bytesPerActivate::128-255        15464     22.26%     80.51% # Bytes accessed per row activation
system.mem_ctrls.bytesPerActivate::256-383         3660      5.27%     85.78% # Bytes accessed per row activation
system.mem_ctrls.bytesPerActivate::384-511         1557      2.24%     88.02% # Bytes accessed per row activation
system.mem_ctrls.bytesPerActivate::512-639          915      1.32%     89.34% # Bytes accessed per row activation
system.mem_ctrls.bytesPerActivate::640-767          508      0.73%     90.07% # Bytes accessed per row activation
system.mem_ctrls.bytesPerActivate::768-895          477      0.69%     90.76% # Bytes accessed per row activation
system.mem_ctrls.bytesPerActivate::896-1023          305      0.44%     91.20% # Bytes accessed per row activation
system.mem_ctrls.bytesPerActivate::1024-1151         6116      8.80%    100.00% # Bytes accessed per row activation
system.mem_ctrls.bytesPerActivate::total        69467                       # Bytes accessed per row activation
system.mem_ctrls.rdPerTurnAround::samples         1475                       # Reads before turning the bus around for writes
system.mem_ctrls.rdPerTurnAround::mean     134.145085                       # Reads before turning the bus around for writes
system.mem_ctrls.rdPerTurnAround::stdev    526.671029                       # Reads before turning the bus around for writes
system.mem_ctrls.rdPerTurnAround::0-511          1449     98.24%     98.24% # Reads before turning the bus around for writes
system.mem_ctrls.rdPerTurnAround::512-1023            2      0.14%     98.37% # Reads before turning the bus around for writes
system.mem_ctrls.rdPerTurnAround::1536-2047            2      0.14%     98.51% # Reads before turning the bus around for writes
system.mem_ctrls.rdPerTurnAround::2048-2559            7      0.47%     98.98% # Reads before turning the bus around for writes
system.mem_ctrls.rdPerTurnAround::3072-3583            1      0.07%     99.05% # Reads before turning the bus around for writes
system.mem_ctrls.rdPerTurnAround::3584-4095            2      0.14%     99.19% # Reads before turning the bus around for writes
system.mem_ctrls.rdPerTurnAround::4096-4607            6      0.41%     99.59% # Reads before turning the bus around for writes
system.mem_ctrls.rdPerTurnAround::4608-5119            1      0.07%     99.66% # Reads before turning the bus around for writes
system.mem_ctrls.rdPerTurnAround::6144-6655            4      0.27%     99.93% # Reads before turning the bus around for writes
system.mem_ctrls.rdPerTurnAround::8192-8703            1      0.07%    100.00% # Reads before turning the bus around for writes
system.mem_ctrls.rdPerTurnAround::total          1475                       # Reads before turning the bus around for writes
system.mem_ctrls.wrPerTurnAround::samples         1475                       # Writes before turning the bus around for reads
system.mem_ctrls.wrPerTurnAround::mean      17.015593                       # Writes before turning the bus around for reads
system.mem_ctrls.wrPerTurnAround::gmean     16.893661                       # Writes before turning the bus around for reads
system.mem_ctrls.wrPerTurnAround::stdev      2.311648                       # Writes before turning the bus around for reads
system.mem_ctrls.wrPerTurnAround::16             1053     71.39%     71.39% # Writes before turning the bus around for reads
system.mem_ctrls.wrPerTurnAround::17               19      1.29%     72.68% # Writes before turning the bus around for reads
system.mem_ctrls.wrPerTurnAround::18              277     18.78%     91.46% # Writes before turning the bus around for reads
system.mem_ctrls.wrPerTurnAround::19               12      0.81%     92.27% # Writes before turning the bus around for reads
system.mem_ctrls.wrPerTurnAround::20                1      0.07%     92.34% # Writes before turning the bus around for reads
system.mem_ctrls.wrPerTurnAround::21               35      2.37%     94.71% # Writes before turning the bus around for reads
system.mem_ctrls.wrPerTurnAround::22               12      0.81%     95.53% # Writes before turning the bus around for reads
system.mem_ctrls.wrPerTurnAround::23                3      0.20%     95.73% # Writes before turning the bus around for reads
system.mem_ctrls.wrPerTurnAround::24               38      2.58%     98.31% # Writes before turning the bus around for reads
system.mem_ctrls.wrPerTurnAround::25                5      0.34%     98.64% # Writes before turning the bus around for reads
system.mem_ctrls.wrPerTurnAround::26                1      0.07%     98.71% # Writes before turning the bus around for reads
system.mem_ctrls.wrPerTurnAround::27                2      0.14%     98.85% # Writes before turning the bus around for reads
system.mem_ctrls.wrPerTurnAround::28               12      0.81%     99.66% # Writes before turning the bus around for reads
system.mem_ctrls.wrPerTurnAround::30                2      0.14%     99.80% # Writes before turning the bus around for reads
system.mem_ctrls.wrPerTurnAround::33                1      0.07%     99.86% # Writes before turning the bus around for reads
system.mem_ctrls.wrPerTurnAround::39                1      0.07%     99.93% # Writes before turning the bus around for reads
system.mem_ctrls.wrPerTurnAround::40                1      0.07%    100.00% # Writes before turning the bus around for reads
system.mem_ctrls.wrPerTurnAround::total          1475                       # Writes before turning the bus around for reads
system.mem_ctrls.totQLat                   1537611492                       # Total ticks spent queuing
system.mem_ctrls.totMemAccLat              5247711492                       # Total ticks spent from burst creation until serviced by the DRAM
system.mem_ctrls.totBusLat                  989360000                       # Total ticks spent in databus transfers
system.mem_ctrls.avgQLat                      7770.74                       # Average queueing delay per DRAM burst
system.mem_ctrls.avgBusLat                    5000.00                       # Average bus latency per DRAM burst
system.mem_ctrls.avgMemAccLat                26520.74                       # Average memory access latency per DRAM burst
system.mem_ctrls.avgRdBW                         4.29                       # Average DRAM read bandwidth in MiByte/s
system.mem_ctrls.avgWrBW                         0.54                       # Average achieved write bandwidth in MiByte/s
system.mem_ctrls.avgRdBWSys                      4.38                       # Average system read bandwidth in MiByte/s
system.mem_ctrls.avgWrBWSys                      0.57                       # Average system write bandwidth in MiByte/s
system.mem_ctrls.peakBW                      12800.00                       # Theoretical peak bandwidth in MiByte/s
system.mem_ctrls.busUtil                         0.04                       # Data bus utilization in percentage
system.mem_ctrls.busUtilRead                     0.03                       # Data bus utilization in percentage for reads
system.mem_ctrls.busUtilWrite                    0.00                       # Data bus utilization in percentage for writes
system.mem_ctrls.avgRdQLen                       1.00                       # Average read queue length when enqueuing
system.mem_ctrls.avgWrQLen                      25.21                       # Average write queue length when enqueuing
system.mem_ctrls.readRowHits                   141978                       # Number of row buffer hits during reads
system.mem_ctrls.writeRowHits                   11525                       # Number of row buffer hits during writes
system.mem_ctrls.readRowHitRate                 71.75                       # Row buffer hit rate for reads
system.mem_ctrls.writeRowHitRate                45.91                       # Row buffer hit rate for writes
system.mem_ctrls.avgGap                   12920703.12                       # Average gap between requests
system.mem_ctrls.pageHitRate                    68.84                       # Row buffer hit rate, read and write combined
system.mem_ctrls_0.actEnergy                291566520                       # Energy for activate commands per rank (pJ)
system.mem_ctrls_0.preEnergy                159088875                       # Energy for precharge commands per rank (pJ)
system.mem_ctrls_0.readEnergy               850644600                       # Energy for read commands per rank (pJ)
system.mem_ctrls_0.writeEnergy               85127760                       # Energy for write commands per rank (pJ)
system.mem_ctrls_0.refreshEnergy         193075821120                       # Energy for refresh commands per rank (pJ)
system.mem_ctrls_0.actBackEnergy         112462937145                       # Energy for active background per rank (pJ)
system.mem_ctrls_0.preBackEnergy         1674987687750                       # Energy for precharge background per rank (pJ)
system.mem_ctrls_0.totalEnergy           1981912873770                       # Total energy per rank (pJ)
system.mem_ctrls_0.averagePower            670.456313                       # Core power per rank (mW)
system.mem_ctrls_0.memoryStateTime::IDLE 2784778053000                       # Time in different power states
system.mem_ctrls_0.memoryStateTime::REF   98580040000                       # Time in different power states
system.mem_ctrls_0.memoryStateTime::PRE_PDN            0                       # Time in different power states
system.mem_ctrls_0.memoryStateTime::ACT   68831185750                       # Time in different power states
system.mem_ctrls_0.memoryStateTime::ACT_PDN            0                       # Time in different power states
system.mem_ctrls_1.actEnergy                266799960                       # Energy for activate commands per rank (pJ)
system.mem_ctrls_1.preEnergy                145575375                       # Energy for precharge commands per rank (pJ)
system.mem_ctrls_1.readEnergy               824226000                       # Energy for read commands per rank (pJ)
system.mem_ctrls_1.writeEnergy               80364960                       # Energy for write commands per rank (pJ)
system.mem_ctrls_1.refreshEnergy         193075821120                       # Energy for refresh commands per rank (pJ)
system.mem_ctrls_1.actBackEnergy         106937347455                       # Energy for active background per rank (pJ)
system.mem_ctrls_1.preBackEnergy         1679834696250                       # Energy for precharge background per rank (pJ)
system.mem_ctrls_1.totalEnergy           1981164831120                       # Total energy per rank (pJ)
system.mem_ctrls_1.averagePower            670.203260                       # Core power per rank (mW)
system.mem_ctrls_1.memoryStateTime::IDLE 2792923008500                       # Time in different power states
system.mem_ctrls_1.memoryStateTime::REF   98580040000                       # Time in different power states
system.mem_ctrls_1.memoryStateTime::PRE_PDN            0                       # Time in different power states
system.mem_ctrls_1.memoryStateTime::ACT   60683785500                       # Time in different power states
system.mem_ctrls_1.memoryStateTime::ACT_PDN            0                       # Time in different power states
system.cpu_voltage_domain.voltage                   1                       # Voltage in Volts
system.cpu_clk_domain.clock                       500                       # Clock period in ticks
system.cpu0.apic_clk_domain.clock                8000                       # Clock period in ticks
system.cpu0.numCycles                      5907698489                       # number of cpu cycles simulated
system.cpu0.numWorkItemsStarted                     0                       # number of work items this cpu started
system.cpu0.numWorkItemsCompleted                   0                       # number of work items this cpu completed
system.cpu0.kern.inst.arm                           0                       # number of arm instructions executed
system.cpu0.kern.inst.quiesce                       0                       # number of quiesce instructions executed
system.cpu0.committedInsts                    2918871                       # Number of instructions committed
system.cpu0.committedOps                      6232444                       # Number of ops (including micro ops) committed
system.cpu0.num_int_alu_accesses              6114537                       # Number of integer alu accesses
system.cpu0.num_fp_alu_accesses                   165                       # Number of float alu accesses
system.cpu0.num_func_calls                     174474                       # number of times a function call or return occured
system.cpu0.num_conditional_control_insts       480387                       # number of instructions that are conditional controls
system.cpu0.num_int_insts                     6114537                       # number of integer instructions
system.cpu0.num_fp_insts                          165                       # number of float instructions
system.cpu0.num_int_register_reads           12114878                       # number of times the integer registers were read
system.cpu0.num_int_register_writes           5023715                       # number of times the integer registers were written
system.cpu0.num_fp_register_reads                 273                       # number of times the floating registers were read
system.cpu0.num_fp_register_writes                133                       # number of times the floating registers were written
system.cpu0.num_cc_register_reads             3735512                       # number of times the CC registers were read
system.cpu0.num_cc_register_writes            1961100                       # number of times the CC registers were written
system.cpu0.num_mem_refs                      1372793                       # number of memory refs
system.cpu0.num_load_insts                     852710                       # Number of load instructions
system.cpu0.num_store_insts                    520083                       # Number of store instructions
system.cpu0.num_idle_cycles              5895307601.961180                       # Number of idle cycles
system.cpu0.num_busy_cycles              12390887.038820                       # Number of busy cycles
system.cpu0.not_idle_fraction                0.002097                       # Percentage of non-idle cycles
system.cpu0.idle_fraction                    0.997903                       # Percentage of idle cycles
system.cpu0.Branches                           706086                       # Number of branches fetched
system.cpu0.op_class::No_OpClass                86426      1.39%      1.39% # Class of executed instruction
system.cpu0.op_class::IntAlu                  4732585     75.93%     77.32% # Class of executed instruction
system.cpu0.op_class::IntMult                   12997      0.21%     77.53% # Class of executed instruction
system.cpu0.op_class::IntDiv                    27545      0.44%     77.97% # Class of executed instruction
system.cpu0.op_class::FloatAdd                    122      0.00%     77.97% # Class of executed instruction
system.cpu0.op_class::FloatCmp                      0      0.00%     77.97% # Class of executed instruction
system.cpu0.op_class::FloatCvt                      0      0.00%     77.97% # Class of executed instruction
system.cpu0.op_class::FloatMult                     0      0.00%     77.97% # Class of executed instruction
system.cpu0.op_class::FloatDiv                      0      0.00%     77.97% # Class of executed instruction
system.cpu0.op_class::FloatSqrt                     0      0.00%     77.97% # Class of executed instruction
system.cpu0.op_class::SimdAdd                       0      0.00%     77.97% # Class of executed instruction
system.cpu0.op_class::SimdAddAcc                    0      0.00%     77.97% # Class of executed instruction
system.cpu0.op_class::SimdAlu                       0      0.00%     77.97% # Class of executed instruction
system.cpu0.op_class::SimdCmp                       0      0.00%     77.97% # Class of executed instruction
system.cpu0.op_class::SimdCvt                       0      0.00%     77.97% # Class of executed instruction
system.cpu0.op_class::SimdMisc                      0      0.00%     77.97% # Class of executed instruction
system.cpu0.op_class::SimdMult                      0      0.00%     77.97% # Class of executed instruction
system.cpu0.op_class::SimdMultAcc                   0      0.00%     77.97% # Class of executed instruction
system.cpu0.op_class::SimdShift                     0      0.00%     77.97% # Class of executed instruction
system.cpu0.op_class::SimdShiftAcc                  0      0.00%     77.97% # Class of executed instruction
system.cpu0.op_class::SimdSqrt                      0      0.00%     77.97% # Class of executed instruction
system.cpu0.op_class::SimdFloatAdd                  0      0.00%     77.97% # Class of executed instruction
system.cpu0.op_class::SimdFloatAlu                  0      0.00%     77.97% # Class of executed instruction
system.cpu0.op_class::SimdFloatCmp                  0      0.00%     77.97% # Class of executed instruction
system.cpu0.op_class::SimdFloatCvt                  0      0.00%     77.97% # Class of executed instruction
system.cpu0.op_class::SimdFloatDiv                  0      0.00%     77.97% # Class of executed instruction
system.cpu0.op_class::SimdFloatMisc                 0      0.00%     77.97% # Class of executed instruction
system.cpu0.op_class::SimdFloatMult                 0      0.00%     77.97% # Class of executed instruction
system.cpu0.op_class::SimdFloatMultAcc              0      0.00%     77.97% # Class of executed instruction
system.cpu0.op_class::SimdFloatSqrt                 0      0.00%     77.97% # Class of executed instruction
system.cpu0.op_class::MemRead                  852710     13.68%     91.66% # Class of executed instruction
system.cpu0.op_class::MemWrite                 520083      8.34%    100.00% # Class of executed instruction
system.cpu0.op_class::IprAccess                     0      0.00%    100.00% # Class of executed instruction
system.cpu0.op_class::InstPrefetch                  0      0.00%    100.00% # Class of executed instruction
system.cpu0.op_class::total                   6232468                       # Class of executed instruction
system.cpu1.apic_clk_domain.clock                8000                       # Clock period in ticks
system.cpu1.numCycles                      5905327133                       # number of cpu cycles simulated
system.cpu1.numWorkItemsStarted                     0                       # number of work items this cpu started
system.cpu1.numWorkItemsCompleted                   0                       # number of work items this cpu completed
system.cpu1.kern.inst.arm                           0                       # number of arm instructions executed
system.cpu1.kern.inst.quiesce                       0                       # number of quiesce instructions executed
system.cpu1.committedInsts                 1522953751                       # Number of instructions committed
system.cpu1.committedOps                   2548312160                       # Number of ops (including micro ops) committed
system.cpu1.num_int_alu_accesses           1952763291                       # Number of integer alu accesses
system.cpu1.num_fp_alu_accesses             965601665                       # Number of float alu accesses
system.cpu1.num_func_calls                   35519141                       # number of times a function call or return occured
system.cpu1.num_conditional_control_insts    171935493                       # number of instructions that are conditional controls
system.cpu1.num_int_insts                  1952763291                       # number of integer instructions
system.cpu1.num_fp_insts                    965601665                       # number of float instructions
system.cpu1.num_int_register_reads         4136000783                       # number of times the integer registers were read
system.cpu1.num_int_register_writes        1332151643                       # number of times the integer registers were written
system.cpu1.num_fp_register_reads          1529965546                       # number of times the floating registers were read
system.cpu1.num_fp_register_writes          790021367                       # number of times the floating registers were written
system.cpu1.num_cc_register_reads          1449522973                       # number of times the CC registers were read
system.cpu1.num_cc_register_writes          551335752                       # number of times the CC registers were written
system.cpu1.num_mem_refs                    645355989                       # number of memory refs
system.cpu1.num_load_insts                  478757875                       # Number of load instructions
system.cpu1.num_store_insts                 166598114                       # Number of store instructions
system.cpu1.num_idle_cycles              4815697.753671                       # Number of idle cycles
system.cpu1.num_busy_cycles              5900511435.246328                       # Number of busy cycles
system.cpu1.not_idle_fraction                0.999185                       # Percentage of non-idle cycles
system.cpu1.idle_fraction                    0.000815                       # Percentage of idle cycles
system.cpu1.Branches                        231859747                       # Number of branches fetched
system.cpu1.op_class::No_OpClass              3402765      0.13%      0.13% # Class of executed instruction
system.cpu1.op_class::IntAlu               1476046721     57.92%     58.06% # Class of executed instruction
system.cpu1.op_class::IntMult                 4735380      0.19%     58.24% # Class of executed instruction
system.cpu1.op_class::IntDiv                 19610384      0.77%     59.01% # Class of executed instruction
system.cpu1.op_class::FloatAdd              398092941     15.62%     74.63% # Class of executed instruction
system.cpu1.op_class::FloatCmp                      0      0.00%     74.63% # Class of executed instruction
system.cpu1.op_class::FloatCvt                      0      0.00%     74.63% # Class of executed instruction
system.cpu1.op_class::FloatMult                     0      0.00%     74.63% # Class of executed instruction
system.cpu1.op_class::FloatDiv                1068156      0.04%     74.68% # Class of executed instruction
system.cpu1.op_class::FloatSqrt                     0      0.00%     74.68% # Class of executed instruction
system.cpu1.op_class::SimdAdd                       0      0.00%     74.68% # Class of executed instruction
system.cpu1.op_class::SimdAddAcc                    0      0.00%     74.68% # Class of executed instruction
system.cpu1.op_class::SimdAlu                       0      0.00%     74.68% # Class of executed instruction
system.cpu1.op_class::SimdCmp                       0      0.00%     74.68% # Class of executed instruction
system.cpu1.op_class::SimdCvt                       0      0.00%     74.68% # Class of executed instruction
system.cpu1.op_class::SimdMisc                      0      0.00%     74.68% # Class of executed instruction
system.cpu1.op_class::SimdMult                      0      0.00%     74.68% # Class of executed instruction
system.cpu1.op_class::SimdMultAcc                   0      0.00%     74.68% # Class of executed instruction
system.cpu1.op_class::SimdShift                     0      0.00%     74.68% # Class of executed instruction
system.cpu1.op_class::SimdShiftAcc                  0      0.00%     74.68% # Class of executed instruction
system.cpu1.op_class::SimdSqrt                      0      0.00%     74.68% # Class of executed instruction
system.cpu1.op_class::SimdFloatAdd                  0      0.00%     74.68% # Class of executed instruction
system.cpu1.op_class::SimdFloatAlu                  0      0.00%     74.68% # Class of executed instruction
system.cpu1.op_class::SimdFloatCmp                  0      0.00%     74.68% # Class of executed instruction
system.cpu1.op_class::SimdFloatCvt                  0      0.00%     74.68% # Class of executed instruction
system.cpu1.op_class::SimdFloatDiv                  0      0.00%     74.68% # Class of executed instruction
system.cpu1.op_class::SimdFloatMisc                 0      0.00%     74.68% # Class of executed instruction
system.cpu1.op_class::SimdFloatMult                 0      0.00%     74.68% # Class of executed instruction
system.cpu1.op_class::SimdFloatMultAcc              0      0.00%     74.68% # Class of executed instruction
system.cpu1.op_class::SimdFloatSqrt                 0      0.00%     74.68% # Class of executed instruction
system.cpu1.op_class::MemRead               478757875     18.79%     93.46% # Class of executed instruction
system.cpu1.op_class::MemWrite              166598114      6.54%    100.00% # Class of executed instruction
system.cpu1.op_class::IprAccess                     0      0.00%    100.00% # Class of executed instruction
system.cpu1.op_class::InstPrefetch                  0      0.00%    100.00% # Class of executed instruction
system.cpu1.op_class::total                2548312336                       # Class of executed instruction
system.cpu2.apic_clk_domain.clock                8000                       # Clock period in ticks
system.cpu2.numCycles                      5900897459                       # number of cpu cycles simulated
system.cpu2.numWorkItemsStarted                     0                       # number of work items this cpu started
system.cpu2.numWorkItemsCompleted                   0                       # number of work items this cpu completed
system.cpu2.kern.inst.arm                           0                       # number of arm instructions executed
system.cpu2.kern.inst.quiesce                       0                       # number of quiesce instructions executed
system.cpu2.committedInsts                    2593368                       # Number of instructions committed
system.cpu2.committedOps                      5525666                       # Number of ops (including micro ops) committed
system.cpu2.num_int_alu_accesses              5416564                       # Number of integer alu accesses
system.cpu2.num_fp_alu_accesses                     0                       # Number of float alu accesses
system.cpu2.num_func_calls                     144868                       # number of times a function call or return occured
system.cpu2.num_conditional_control_insts       448548                       # number of instructions that are conditional controls
system.cpu2.num_int_insts                     5416564                       # number of integer instructions
system.cpu2.num_fp_insts                            0                       # number of float instructions
system.cpu2.num_int_register_reads           10717709                       # number of times the integer registers were read
system.cpu2.num_int_register_writes           4468829                       # number of times the integer registers were written
system.cpu2.num_fp_register_reads                   0                       # number of times the floating registers were read
system.cpu2.num_fp_register_writes                  0                       # number of times the floating registers were written
system.cpu2.num_cc_register_reads             3421789                       # number of times the CC registers were read
system.cpu2.num_cc_register_writes            1731410                       # number of times the CC registers were written
system.cpu2.num_mem_refs                      1207816                       # number of memory refs
system.cpu2.num_load_insts                     755988                       # Number of load instructions
system.cpu2.num_store_insts                    451828                       # Number of store instructions
system.cpu2.num_idle_cycles              5890103668.162236                       # Number of idle cycles
system.cpu2.num_busy_cycles              10793790.837764                       # Number of busy cycles
system.cpu2.not_idle_fraction                0.001829                       # Percentage of non-idle cycles
system.cpu2.idle_fraction                    0.998171                       # Percentage of idle cycles
system.cpu2.Branches                           638411                       # Number of branches fetched
system.cpu2.op_class::No_OpClass                88510      1.60%      1.60% # Class of executed instruction
system.cpu2.op_class::IntAlu                  4188667     75.80%     77.41% # Class of executed instruction
system.cpu2.op_class::IntMult                    9918      0.18%     77.59% # Class of executed instruction
system.cpu2.op_class::IntDiv                    30758      0.56%     78.14% # Class of executed instruction
system.cpu2.op_class::FloatAdd                      0      0.00%     78.14% # Class of executed instruction
system.cpu2.op_class::FloatCmp                      0      0.00%     78.14% # Class of executed instruction
system.cpu2.op_class::FloatCvt                      0      0.00%     78.14% # Class of executed instruction
system.cpu2.op_class::FloatMult                     0      0.00%     78.14% # Class of executed instruction
system.cpu2.op_class::FloatDiv                      0      0.00%     78.14% # Class of executed instruction
system.cpu2.op_class::FloatSqrt                     0      0.00%     78.14% # Class of executed instruction
system.cpu2.op_class::SimdAdd                       0      0.00%     78.14% # Class of executed instruction
system.cpu2.op_class::SimdAddAcc                    0      0.00%     78.14% # Class of executed instruction
system.cpu2.op_class::SimdAlu                       0      0.00%     78.14% # Class of executed instruction
system.cpu2.op_class::SimdCmp                       0      0.00%     78.14% # Class of executed instruction
system.cpu2.op_class::SimdCvt                       0      0.00%     78.14% # Class of executed instruction
system.cpu2.op_class::SimdMisc                      0      0.00%     78.14% # Class of executed instruction
system.cpu2.op_class::SimdMult                      0      0.00%     78.14% # Class of executed instruction
system.cpu2.op_class::SimdMultAcc                   0      0.00%     78.14% # Class of executed instruction
system.cpu2.op_class::SimdShift                     0      0.00%     78.14% # Class of executed instruction
system.cpu2.op_class::SimdShiftAcc                  0      0.00%     78.14% # Class of executed instruction
system.cpu2.op_class::SimdSqrt                      0      0.00%     78.14% # Class of executed instruction
system.cpu2.op_class::SimdFloatAdd                  0      0.00%     78.14% # Class of executed instruction
system.cpu2.op_class::SimdFloatAlu                  0      0.00%     78.14% # Class of executed instruction
system.cpu2.op_class::SimdFloatCmp                  0      0.00%     78.14% # Class of executed instruction
system.cpu2.op_class::SimdFloatCvt                  0      0.00%     78.14% # Class of executed instruction
system.cpu2.op_class::SimdFloatDiv                  0      0.00%     78.14% # Class of executed instruction
system.cpu2.op_class::SimdFloatMisc                 0      0.00%     78.14% # Class of executed instruction
system.cpu2.op_class::SimdFloatMult                 0      0.00%     78.14% # Class of executed instruction
system.cpu2.op_class::SimdFloatMultAcc              0      0.00%     78.14% # Class of executed instruction
system.cpu2.op_class::SimdFloatSqrt                 0      0.00%     78.14% # Class of executed instruction
system.cpu2.op_class::MemRead                  755988     13.68%     91.82% # Class of executed instruction
system.cpu2.op_class::MemWrite                 451828      8.18%    100.00% # Class of executed instruction
system.cpu2.op_class::IprAccess                     0      0.00%    100.00% # Class of executed instruction
system.cpu2.op_class::InstPrefetch                  0      0.00%    100.00% # Class of executed instruction
system.cpu2.op_class::total                   5525669                       # Class of executed instruction
system.cpu3.apic_clk_domain.clock                8000                       # Clock period in ticks
system.cpu3.numCycles                      5902274547                       # number of cpu cycles simulated
system.cpu3.numWorkItemsStarted                     0                       # number of work items this cpu started
system.cpu3.numWorkItemsCompleted                   0                       # number of work items this cpu completed
system.cpu3.kern.inst.arm                           0                       # number of arm instructions executed
system.cpu3.kern.inst.quiesce                       0                       # number of quiesce instructions executed
system.cpu3.committedInsts                    3454021                       # Number of instructions committed
system.cpu3.committedOps                      7125954                       # Number of ops (including micro ops) committed
system.cpu3.num_int_alu_accesses              6995471                       # Number of integer alu accesses
system.cpu3.num_fp_alu_accesses                  1778                       # Number of float alu accesses
system.cpu3.num_func_calls                     175434                       # number of times a function call or return occured
system.cpu3.num_conditional_control_insts       591596                       # number of instructions that are conditional controls
system.cpu3.num_int_insts                     6995471                       # number of integer instructions
system.cpu3.num_fp_insts                         1778                       # number of float instructions
system.cpu3.num_int_register_reads           13905292                       # number of times the integer registers were read
system.cpu3.num_int_register_writes           5744358                       # number of times the integer registers were written
system.cpu3.num_fp_register_reads                2988                       # number of times the floating registers were read
system.cpu3.num_fp_register_writes               1416                       # number of times the floating registers were written
system.cpu3.num_cc_register_reads             4401364                       # number of times the CC registers were read
system.cpu3.num_cc_register_writes            2303208                       # number of times the CC registers were written
system.cpu3.num_mem_refs                      1562560                       # number of memory refs
system.cpu3.num_load_insts                     977361                       # Number of load instructions
system.cpu3.num_store_insts                    585199                       # Number of store instructions
system.cpu3.num_idle_cycles              5887243527.091307                       # Number of idle cycles
system.cpu3.num_busy_cycles              15031019.908693                       # Number of busy cycles
system.cpu3.not_idle_fraction                0.002547                       # Percentage of non-idle cycles
system.cpu3.idle_fraction                    0.997453                       # Percentage of idle cycles
system.cpu3.Branches                           821776                       # Number of branches fetched
system.cpu3.op_class::No_OpClass                97662      1.37%      1.37% # Class of executed instruction
system.cpu3.op_class::IntAlu                  5420192     76.06%     77.43% # Class of executed instruction
system.cpu3.op_class::IntMult                   10879      0.15%     77.58% # Class of executed instruction
system.cpu3.op_class::IntDiv                    33406      0.47%     78.05% # Class of executed instruction
system.cpu3.op_class::FloatAdd                   1344      0.02%     78.07% # Class of executed instruction
system.cpu3.op_class::FloatCmp                      0      0.00%     78.07% # Class of executed instruction
system.cpu3.op_class::FloatCvt                      0      0.00%     78.07% # Class of executed instruction
system.cpu3.op_class::FloatMult                     0      0.00%     78.07% # Class of executed instruction
system.cpu3.op_class::FloatDiv                      0      0.00%     78.07% # Class of executed instruction
system.cpu3.op_class::FloatSqrt                     0      0.00%     78.07% # Class of executed instruction
system.cpu3.op_class::SimdAdd                       0      0.00%     78.07% # Class of executed instruction
system.cpu3.op_class::SimdAddAcc                    0      0.00%     78.07% # Class of executed instruction
system.cpu3.op_class::SimdAlu                       0      0.00%     78.07% # Class of executed instruction
system.cpu3.op_class::SimdCmp                       0      0.00%     78.07% # Class of executed instruction
system.cpu3.op_class::SimdCvt                       0      0.00%     78.07% # Class of executed instruction
system.cpu3.op_class::SimdMisc                      0      0.00%     78.07% # Class of executed instruction
system.cpu3.op_class::SimdMult                      0      0.00%     78.07% # Class of executed instruction
system.cpu3.op_class::SimdMultAcc                   0      0.00%     78.07% # Class of executed instruction
system.cpu3.op_class::SimdShift                     0      0.00%     78.07% # Class of executed instruction
system.cpu3.op_class::SimdShiftAcc                  0      0.00%     78.07% # Class of executed instruction
system.cpu3.op_class::SimdSqrt                      0      0.00%     78.07% # Class of executed instruction
system.cpu3.op_class::SimdFloatAdd                  0      0.00%     78.07% # Class of executed instruction
system.cpu3.op_class::SimdFloatAlu                  0      0.00%     78.07% # Class of executed instruction
system.cpu3.op_class::SimdFloatCmp                  0      0.00%     78.07% # Class of executed instruction
system.cpu3.op_class::SimdFloatCvt                  0      0.00%     78.07% # Class of executed instruction
system.cpu3.op_class::SimdFloatDiv                  0      0.00%     78.07% # Class of executed instruction
system.cpu3.op_class::SimdFloatMisc                 0      0.00%     78.07% # Class of executed instruction
system.cpu3.op_class::SimdFloatMult                 0      0.00%     78.07% # Class of executed instruction
system.cpu3.op_class::SimdFloatMultAcc              0      0.00%     78.07% # Class of executed instruction
system.cpu3.op_class::SimdFloatSqrt                 0      0.00%     78.07% # Class of executed instruction
system.cpu3.op_class::MemRead                  977361     13.72%     91.79% # Class of executed instruction
system.cpu3.op_class::MemWrite                 585199      8.21%    100.00% # Class of executed instruction
system.cpu3.op_class::IprAccess                     0      0.00%    100.00% # Class of executed instruction
system.cpu3.op_class::InstPrefetch                  0      0.00%    100.00% # Class of executed instruction
system.cpu3.op_class::total                   7126043                       # Class of executed instruction
system.iobus.trans_dist::ReadReq                  863                       # Transaction distribution
system.iobus.trans_dist::ReadResp                 863                       # Transaction distribution
system.iobus.trans_dist::WriteReq                4582                       # Transaction distribution
system.iobus.trans_dist::WriteResp               4582                       # Transaction distribution
system.iobus.trans_dist::MessageReq               110                       # Transaction distribution
system.iobus.trans_dist::MessageResp              110                       # Transaction distribution
system.iobus.pkt_count_system.pc.south_bridge.io_apic.int_master::system.ruby.l1_cntrl0.sequencer.pio-slave-port           52                       # Packet count per connected master and slave (bytes)
system.iobus.pkt_count_system.pc.south_bridge.io_apic.int_master::system.ruby.l1_cntrl1.sequencer.pio-slave-port           50                       # Packet count per connected master and slave (bytes)
system.iobus.pkt_count_system.pc.south_bridge.io_apic.int_master::system.ruby.l1_cntrl2.sequencer.pio-slave-port           50                       # Packet count per connected master and slave (bytes)
system.iobus.pkt_count_system.pc.south_bridge.io_apic.int_master::system.ruby.l1_cntrl3.sequencer.pio-slave-port           50                       # Packet count per connected master and slave (bytes)
system.iobus.pkt_count_system.pc.south_bridge.io_apic.int_master::total          202                       # Packet count per connected master and slave (bytes)
system.iobus.pkt_count_system.ruby.l1_cntrl0.sequencer.mem-master-port::system.pc.south_bridge.ide.pio         1014                       # Packet count per connected master and slave (bytes)
system.iobus.pkt_count_system.ruby.l1_cntrl0.sequencer.mem-master-port::system.pc.south_bridge.io_apic.pio            8                       # Packet count per connected master and slave (bytes)
system.iobus.pkt_count_system.ruby.l1_cntrl0.sequencer.mem-master-port::system.pc.com_1.pio            2                       # Packet count per connected master and slave (bytes)
system.iobus.pkt_count_system.ruby.l1_cntrl0.sequencer.mem-master-port::system.ruby.l1_cntrl0.sequencer.pio-slave-port         1544                       # Packet count per connected master and slave (bytes)
system.iobus.pkt_count_system.ruby.l1_cntrl0.sequencer.mem-master-port::system.ruby.l1_cntrl1.sequencer.pio-slave-port            2                       # Packet count per connected master and slave (bytes)
system.iobus.pkt_count_system.ruby.l1_cntrl0.sequencer.mem-master-port::total         2570                       # Packet count per connected master and slave (bytes)
system.iobus.pkt_count_system.ruby.l1_cntrl1.sequencer.mem-master-port::system.pc.south_bridge.ide.pio         1626                       # Packet count per connected master and slave (bytes)
system.iobus.pkt_count_system.ruby.l1_cntrl1.sequencer.mem-master-port::system.ruby.l1_cntrl0.sequencer.pio-slave-port            6                       # Packet count per connected master and slave (bytes)
system.iobus.pkt_count_system.ruby.l1_cntrl1.sequencer.mem-master-port::system.ruby.l1_cntrl1.sequencer.pio-slave-port         1554                       # Packet count per connected master and slave (bytes)
system.iobus.pkt_count_system.ruby.l1_cntrl1.sequencer.mem-master-port::system.ruby.l1_cntrl2.sequencer.pio-slave-port            2                       # Packet count per connected master and slave (bytes)
system.iobus.pkt_count_system.ruby.l1_cntrl1.sequencer.mem-master-port::total         3188                       # Packet count per connected master and slave (bytes)
system.iobus.pkt_count_system.ruby.l1_cntrl2.sequencer.mem-master-port::system.pc.south_bridge.ide.pio          934                       # Packet count per connected master and slave (bytes)
system.iobus.pkt_count_system.ruby.l1_cntrl2.sequencer.mem-master-port::system.pc.south_bridge.io_apic.pio            6                       # Packet count per connected master and slave (bytes)
system.iobus.pkt_count_system.ruby.l1_cntrl2.sequencer.mem-master-port::system.pc.com_1.pio          174                       # Packet count per connected master and slave (bytes)
system.iobus.pkt_count_system.ruby.l1_cntrl2.sequencer.mem-master-port::system.ruby.l1_cntrl2.sequencer.pio-slave-port         1538                       # Packet count per connected master and slave (bytes)
system.iobus.pkt_count_system.ruby.l1_cntrl2.sequencer.mem-master-port::system.ruby.l1_cntrl3.sequencer.pio-slave-port            2                       # Packet count per connected master and slave (bytes)
system.iobus.pkt_count_system.ruby.l1_cntrl2.sequencer.mem-master-port::total         2654                       # Packet count per connected master and slave (bytes)
system.iobus.pkt_count_system.ruby.l1_cntrl3.sequencer.mem-master-port::system.pc.south_bridge.ide.pio          934                       # Packet count per connected master and slave (bytes)
system.iobus.pkt_count_system.ruby.l1_cntrl3.sequencer.mem-master-port::system.pc.south_bridge.io_apic.pio            8                       # Packet count per connected master and slave (bytes)
system.iobus.pkt_count_system.ruby.l1_cntrl3.sequencer.mem-master-port::system.ruby.l1_cntrl0.sequencer.pio-slave-port            2                       # Packet count per connected master and slave (bytes)
system.iobus.pkt_count_system.ruby.l1_cntrl3.sequencer.mem-master-port::system.ruby.l1_cntrl1.sequencer.pio-slave-port            2                       # Packet count per connected master and slave (bytes)
system.iobus.pkt_count_system.ruby.l1_cntrl3.sequencer.mem-master-port::system.ruby.l1_cntrl2.sequencer.pio-slave-port            2                       # Packet count per connected master and slave (bytes)
system.iobus.pkt_count_system.ruby.l1_cntrl3.sequencer.mem-master-port::system.ruby.l1_cntrl3.sequencer.pio-slave-port         1548                       # Packet count per connected master and slave (bytes)
system.iobus.pkt_count_system.ruby.l1_cntrl3.sequencer.mem-master-port::total         2496                       # Packet count per connected master and slave (bytes)
system.iobus.pkt_count::total                   11110                       # Packet count per connected master and slave (bytes)
system.iobus.pkt_size_system.pc.south_bridge.io_apic.int_master::system.ruby.l1_cntrl0.sequencer.pio-slave-port          104                       # Cumulative packet size per connected master and slave (bytes)
system.iobus.pkt_size_system.pc.south_bridge.io_apic.int_master::system.ruby.l1_cntrl1.sequencer.pio-slave-port          100                       # Cumulative packet size per connected master and slave (bytes)
system.iobus.pkt_size_system.pc.south_bridge.io_apic.int_master::system.ruby.l1_cntrl2.sequencer.pio-slave-port          100                       # Cumulative packet size per connected master and slave (bytes)
system.iobus.pkt_size_system.pc.south_bridge.io_apic.int_master::system.ruby.l1_cntrl3.sequencer.pio-slave-port          100                       # Cumulative packet size per connected master and slave (bytes)
system.iobus.pkt_size_system.pc.south_bridge.io_apic.int_master::total          404                       # Cumulative packet size per connected master and slave (bytes)
system.iobus.pkt_size_system.ruby.l1_cntrl0.sequencer.mem-master-port::system.pc.south_bridge.ide.pio          570                       # Cumulative packet size per connected master and slave (bytes)
system.iobus.pkt_size_system.ruby.l1_cntrl0.sequencer.mem-master-port::system.pc.south_bridge.io_apic.pio           16                       # Cumulative packet size per connected master and slave (bytes)
system.iobus.pkt_size_system.ruby.l1_cntrl0.sequencer.mem-master-port::system.pc.com_1.pio            1                       # Cumulative packet size per connected master and slave (bytes)
system.iobus.pkt_size_system.ruby.l1_cntrl0.sequencer.mem-master-port::system.ruby.l1_cntrl0.sequencer.pio-slave-port         3088                       # Cumulative packet size per connected master and slave (bytes)
system.iobus.pkt_size_system.ruby.l1_cntrl0.sequencer.mem-master-port::system.ruby.l1_cntrl1.sequencer.pio-slave-port            4                       # Cumulative packet size per connected master and slave (bytes)
system.iobus.pkt_size_system.ruby.l1_cntrl0.sequencer.mem-master-port::total         3679                       # Cumulative packet size per connected master and slave (bytes)
system.iobus.pkt_size_system.ruby.l1_cntrl1.sequencer.mem-master-port::system.pc.south_bridge.ide.pio          930                       # Cumulative packet size per connected master and slave (bytes)
system.iobus.pkt_size_system.ruby.l1_cntrl1.sequencer.mem-master-port::system.ruby.l1_cntrl0.sequencer.pio-slave-port           12                       # Cumulative packet size per connected master and slave (bytes)
system.iobus.pkt_size_system.ruby.l1_cntrl1.sequencer.mem-master-port::system.ruby.l1_cntrl1.sequencer.pio-slave-port         3108                       # Cumulative packet size per connected master and slave (bytes)
system.iobus.pkt_size_system.ruby.l1_cntrl1.sequencer.mem-master-port::system.ruby.l1_cntrl2.sequencer.pio-slave-port            4                       # Cumulative packet size per connected master and slave (bytes)
system.iobus.pkt_size_system.ruby.l1_cntrl1.sequencer.mem-master-port::total         4054                       # Cumulative packet size per connected master and slave (bytes)
system.iobus.pkt_size_system.ruby.l1_cntrl2.sequencer.mem-master-port::system.pc.south_bridge.ide.pio          524                       # Cumulative packet size per connected master and slave (bytes)
system.iobus.pkt_size_system.ruby.l1_cntrl2.sequencer.mem-master-port::system.pc.south_bridge.io_apic.pio           12                       # Cumulative packet size per connected master and slave (bytes)
system.iobus.pkt_size_system.ruby.l1_cntrl2.sequencer.mem-master-port::system.pc.com_1.pio           87                       # Cumulative packet size per connected master and slave (bytes)
system.iobus.pkt_size_system.ruby.l1_cntrl2.sequencer.mem-master-port::system.ruby.l1_cntrl2.sequencer.pio-slave-port         3076                       # Cumulative packet size per connected master and slave (bytes)
system.iobus.pkt_size_system.ruby.l1_cntrl2.sequencer.mem-master-port::system.ruby.l1_cntrl3.sequencer.pio-slave-port            4                       # Cumulative packet size per connected master and slave (bytes)
system.iobus.pkt_size_system.ruby.l1_cntrl2.sequencer.mem-master-port::total         3703                       # Cumulative packet size per connected master and slave (bytes)
system.iobus.pkt_size_system.ruby.l1_cntrl3.sequencer.mem-master-port::system.pc.south_bridge.ide.pio          524                       # Cumulative packet size per connected master and slave (bytes)
system.iobus.pkt_size_system.ruby.l1_cntrl3.sequencer.mem-master-port::system.pc.south_bridge.io_apic.pio           16                       # Cumulative packet size per connected master and slave (bytes)
system.iobus.pkt_size_system.ruby.l1_cntrl3.sequencer.mem-master-port::system.ruby.l1_cntrl0.sequencer.pio-slave-port            4                       # Cumulative packet size per connected master and slave (bytes)
system.iobus.pkt_size_system.ruby.l1_cntrl3.sequencer.mem-master-port::system.ruby.l1_cntrl1.sequencer.pio-slave-port            4                       # Cumulative packet size per connected master and slave (bytes)
system.iobus.pkt_size_system.ruby.l1_cntrl3.sequencer.mem-master-port::system.ruby.l1_cntrl2.sequencer.pio-slave-port            4                       # Cumulative packet size per connected master and slave (bytes)
system.iobus.pkt_size_system.ruby.l1_cntrl3.sequencer.mem-master-port::system.ruby.l1_cntrl3.sequencer.pio-slave-port         3096                       # Cumulative packet size per connected master and slave (bytes)
system.iobus.pkt_size_system.ruby.l1_cntrl3.sequencer.mem-master-port::total         3648                       # Cumulative packet size per connected master and slave (bytes)
system.iobus.pkt_size::total                    15488                       # Cumulative packet size per connected master and slave (bytes)
system.iobus.reqLayer2.occupancy              3903000                       # Layer occupancy (ticks)
system.iobus.reqLayer2.utilization                0.0                       # Layer utilization (%)
system.iobus.reqLayer8.occupancy                18997                       # Layer occupancy (ticks)
system.iobus.reqLayer8.utilization                0.0                       # Layer utilization (%)
system.iobus.reqLayer12.occupancy              114000                       # Layer occupancy (ticks)
system.iobus.reqLayer12.utilization               0.0                       # Layer utilization (%)
system.iobus.reqLayer17.occupancy             1974474                       # Layer occupancy (ticks)
system.iobus.reqLayer17.utilization               0.0                       # Layer utilization (%)
system.iobus.reqLayer18.occupancy             2167754                       # Layer occupancy (ticks)
system.iobus.reqLayer18.utilization               0.0                       # Layer utilization (%)
system.iobus.reqLayer19.occupancy             1964476                       # Layer occupancy (ticks)
system.iobus.reqLayer19.utilization               0.0                       # Layer utilization (%)
system.iobus.reqLayer20.occupancy             1971473                       # Layer occupancy (ticks)
system.iobus.reqLayer20.utilization               0.0                       # Layer utilization (%)
system.iobus.respLayer0.occupancy              176902                       # Layer occupancy (ticks)
system.iobus.respLayer0.utilization               0.0                       # Layer utilization (%)
system.iobus.respLayer2.occupancy             1858000                       # Layer occupancy (ticks)
system.iobus.respLayer2.utilization               0.0                       # Layer utilization (%)
system.iobus.respLayer4.occupancy             2242500                       # Layer occupancy (ticks)
system.iobus.respLayer4.utilization               0.0                       # Layer utilization (%)
system.iobus.respLayer6.occupancy             1950500                       # Layer occupancy (ticks)
system.iobus.respLayer6.utilization               0.0                       # Layer utilization (%)
system.iobus.respLayer8.occupancy             1812000                       # Layer occupancy (ticks)
system.iobus.respLayer8.utilization               0.0                       # Layer utilization (%)
system.pc.south_bridge.ide.disks.dma_read_full_pages         1522                       # Number of full page size DMA reads (not PRD).
system.pc.south_bridge.ide.disks.dma_read_bytes      6234112                       # Number of bytes transfered via DMA reads (not PRD).
system.pc.south_bridge.ide.disks.dma_read_txs         1522                       # Number of DMA read transactions (not PRD).
system.pc.south_bridge.ide.disks.dma_write_full_pages           45                       # Number of full page size DMA writes.
system.pc.south_bridge.ide.disks.dma_write_bytes       184320                       # Number of bytes transfered via DMA writes.
system.pc.south_bridge.ide.disks.dma_write_txs           45                       # Number of DMA write transactions.
system.ruby.clk_domain.clock                      500                       # Clock period in ticks
system.ruby.delayHist::bucket_size                  4                       # delay histogram for all message
system.ruby.delayHist::max_bucket                  39                       # delay histogram for all message
system.ruby.delayHist::samples               46713029                       # delay histogram for all message
system.ruby.delayHist::mean                  0.140759                       # delay histogram for all message
system.ruby.delayHist::stdev                 1.050444                       # delay histogram for all message
system.ruby.delayHist                    |    45893679     98.25%     98.25% |        2734      0.01%     98.25% |      816355      1.75%    100.00% |          87      0.00%    100.00% |         148      0.00%    100.00% |           5      0.00%    100.00% |          17      0.00%    100.00% |           4      0.00%    100.00% |           0      0.00%    100.00% |           0      0.00%    100.00% # delay histogram for all message
system.ruby.delayHist::total                 46713029                       # delay histogram for all message
system.ruby.outstanding_req_hist_seqr::bucket_size            1                      
system.ruby.outstanding_req_hist_seqr::max_bucket            9                      
system.ruby.outstanding_req_hist_seqr::samples   2882056607                      
system.ruby.outstanding_req_hist_seqr::mean     1.000000                      
system.ruby.outstanding_req_hist_seqr::gmean     1.000000                      
system.ruby.outstanding_req_hist_seqr::stdev     0.000261                      
system.ruby.outstanding_req_hist_seqr    |           0      0.00%      0.00% |  2882056410    100.00%    100.00% |         197      0.00%    100.00% |           0      0.00%    100.00% |           0      0.00%    100.00% |           0      0.00%    100.00% |           0      0.00%    100.00% |           0      0.00%    100.00% |           0      0.00%    100.00% |           0      0.00%    100.00%
system.ruby.outstanding_req_hist_seqr::total   2882056607                      
system.ruby.latency_hist_seqr::bucket_size          128                      
system.ruby.latency_hist_seqr::max_bucket         1279                      
[...]
system.ruby.DMA_Controller.Ack           |        3008    100.00%    100.00% |           0      0.00%    100.00%
system.ruby.DMA_Controller.Ack::total            3008                      
system.ruby.DMA_Controller.READY.ReadRequest |       98278    100.00%    100.00% |           0      0.00%    100.00%
system.ruby.DMA_Controller.READY.ReadRequest::total        98278                      
system.ruby.DMA_Controller.READY.WriteRequest |        3008    100.00%    100.00% |           0      0.00%    100.00%
system.ruby.DMA_Controller.READY.WriteRequest::total         3008                      
system.ruby.DMA_Controller.BUSY_RD.Data  |       98278    100.00%    100.00% |           0      0.00%    100.00%
system.ruby.DMA_Controller.BUSY_RD.Data::total        98278                      
system.ruby.DMA_Controller.BUSY_WR.Ack   |        3008    100.00%    100.00% |           0      0.00%    100.00%
system.ruby.DMA_Controller.BUSY_WR.Ack::total         3008                      
system.ruby.L1Cache_Controller.Load      |     1187669      0.24%      0.24% |   487267850     98.84%     99.08% |     1390808      0.28%     99.36% |     3151590      0.64%    100.00%
system.ruby.L1Cache_Controller.Load::total    492997917                      
system.ruby.L1Cache_Controller.Ifetch    |     5780566      0.00%      0.00% |18446744071626018816    100.00%    100.00% |     7278699      0.00%    100.00% |    17313027      0.00%    100.00%
system.ruby.L1Cache_Controller.Ifetch::total 18446744071656392704                      
system.ruby.L1Cache_Controller.Store     |      877512      0.51%      0.51% |   168765705     97.48%     97.98% |     1046537      0.60%     98.59% |     2445406      1.41%    100.00%
system.ruby.L1Cache_Controller.Store::total    173135160                      
system.ruby.L1Cache_Controller.Inv       |       22739     22.41%     22.41% |       22027     21.71%     44.11% |       24862     24.50%     68.61% |       31853     31.39%    100.00%
system.ruby.L1Cache_Controller.Inv::total       101481                      
system.ruby.L1Cache_Controller.L1_Replacement |      106865      1.07%      1.07% |     9609158     96.21%     97.28% |      110846      1.11%     98.38% |      161314      1.62%    100.00%
system.ruby.L1Cache_Controller.L1_Replacement::total      9988183                      
system.ruby.L1Cache_Controller.Fwd_GETX  |        2172     23.81%     23.81% |        1662     18.22%     42.03% |        2266     24.84%     66.87% |        3022     33.13%    100.00%
system.ruby.L1Cache_Controller.Fwd_GETX::total         9122                      
system.ruby.L1Cache_Controller.Fwd_GETS  |       10862     38.66%     38.66% |        4556     16.22%     54.88% |        6464     23.01%     77.89% |        6212     22.11%    100.00%
system.ruby.L1Cache_Controller.Fwd_GETS::total        28094                      
system.ruby.L1Cache_Controller.Data      |          83      3.24%      3.24% |         782     30.50%     33.74% |        1458     56.86%     90.60% |         241      9.40%    100.00%
system.ruby.L1Cache_Controller.Data::total         2564                      
system.ruby.L1Cache_Controller.Data_Exclusive |       20548      0.24%      0.24% |     8282790     98.61%     98.86% |       28997      0.35%     99.20% |       67086      0.80%    100.00%
system.ruby.L1Cache_Controller.Data_Exclusive::total      8399421                      
system.ruby.L1Cache_Controller.DataS_fromL1 |        6862     24.43%     24.43% |        3514     12.51%     36.93% |        5666     20.17%     57.10% |       12052     42.90%    100.00%
system.ruby.L1Cache_Controller.DataS_fromL1::total        28094                      
system.ruby.L1Cache_Controller.Data_all_Acks |       86595      5.44%      5.44% |     1327267     83.35%     88.79% |       85639      5.38%     94.17% |       92915      5.83%    100.00%
system.ruby.L1Cache_Controller.Data_all_Acks::total      1592416                      
system.ruby.L1Cache_Controller.Ack       |       17420     44.39%     44.39% |        8479     21.61%     66.00% |        6397     16.30%     82.30% |        6945     17.70%    100.00%
system.ruby.L1Cache_Controller.Ack::total        39241                      
system.ruby.L1Cache_Controller.Ack_all   |        8391     34.49%     34.49% |        5130     21.09%     55.58% |        5126     21.07%     76.65% |        5680     23.35%    100.00%
system.ruby.L1Cache_Controller.Ack_all::total        24327                      
system.ruby.L1Cache_Controller.WB_Ack    |       25062      0.28%      0.28% |     8859159     98.40%     98.68% |       35918      0.40%     99.07% |       83376      0.93%    100.00%
system.ruby.L1Cache_Controller.WB_Ack::total      9003515                      
system.ruby.L1Cache_Controller.NP.Load   |       30940      0.36%      0.36% |     8342859     98.23%     98.59% |       38279      0.45%     99.04% |       81317      0.96%    100.00%
system.ruby.L1Cache_Controller.NP.Load::total      8493395                      
system.ruby.L1Cache_Controller.NP.Ifetch |       64539      7.42%      7.42% |      686648     78.92%     86.34% |       59341      6.82%     93.16% |       59487      6.84%    100.00%
system.ruby.L1Cache_Controller.NP.Ifetch::total       870015                      
system.ruby.L1Cache_Controller.NP.Store  |       11920      1.91%      1.91% |      579651     92.67%     94.58% |       13386      2.14%     96.72% |       20510      3.28%    100.00%
system.ruby.L1Cache_Controller.NP.Store::total       625467                      
system.ruby.L1Cache_Controller.NP.Inv    |        7972     19.42%     19.42% |       12485     30.42%     49.85% |        7726     18.83%     68.67% |       12858     31.33%    100.00%
system.ruby.L1Cache_Controller.NP.Inv::total        41041                      
system.ruby.L1Cache_Controller.I.Load    |        3499     16.53%     16.53% |        2753     13.01%     29.54% |        7582     35.82%     65.35% |        7334     34.65%    100.00%
system.ruby.L1Cache_Controller.I.Load::total        21168                      
system.ruby.L1Cache_Controller.I.Ifetch  |        1072     24.84%     24.84% |        1318     30.54%     55.39% |        1033     23.94%     79.33% |         892     20.67%    100.00%
system.ruby.L1Cache_Controller.I.Ifetch::total         4315                      
system.ruby.L1Cache_Controller.I.Store   |        2118     26.04%     26.04% |        1124     13.82%     39.86% |        2139     26.30%     66.15% |        2753     33.85%    100.00%
system.ruby.L1Cache_Controller.I.Store::total         8134                      
system.ruby.L1Cache_Controller.I.L1_Replacement |       10452     29.93%     29.93% |        5538     15.86%     45.79% |        8504     24.35%     70.15% |       10425     29.85%    100.00%
system.ruby.L1Cache_Controller.I.L1_Replacement::total        34919                      
system.ruby.L1Cache_Controller.S.Load    |      189781      2.75%      2.75% |     6216051     90.19%     92.95% |      217306      3.15%     96.10% |      268676      3.90%    100.00%
system.ruby.L1Cache_Controller.S.Load::total      6891814                      
system.ruby.L1Cache_Controller.S.Ifetch  |     5714955      0.00%      0.00% |18446744071625330688    100.00%    100.00% |     7218322      0.00%    100.00% |    17252648      0.00%    100.00%
system.ruby.L1Cache_Controller.S.Ifetch::total 18446744071655518208                      
system.ruby.L1Cache_Controller.S.Store   |        8308     38.17%     38.17% |        4348     19.98%     58.15% |        3668     16.85%     75.00% |        5440     25.00%    100.00%
system.ruby.L1Cache_Controller.S.Store::total        21764                      
system.ruby.L1Cache_Controller.S.Inv     |       10704     23.17%     23.17% |        6606     14.30%     37.47% |       13751     29.76%     67.23% |       15140     32.77%    100.00%
system.ruby.L1Cache_Controller.S.Inv::total        46201                      
system.ruby.L1Cache_Controller.S.L1_Replacement |       71351      7.51%      7.51% |      744461     78.39%     85.90% |       66424      6.99%     92.89% |       67513      7.11%    100.00%
system.ruby.L1Cache_Controller.S.L1_Replacement::total       949749                      
system.ruby.L1Cache_Controller.E.Load    |      172104      0.06%      0.06% |   270739676     99.62%     99.68% |      252229      0.09%     99.78% |      605012      0.22%    100.00%
system.ruby.L1Cache_Controller.E.Load::total    271769021                      
system.ruby.L1Cache_Controller.E.Store   |        5637      2.44%      2.44% |      201327     87.15%     89.59% |        9682      4.19%     93.78% |       14372      6.22%    100.00%
system.ruby.L1Cache_Controller.E.Store::total       231018                      
system.ruby.L1Cache_Controller.E.Inv     |        1141     23.36%     23.36% |        1597     32.70%     56.06% |        1037     21.23%     77.29% |        1109     22.71%    100.00%
system.ruby.L1Cache_Controller.E.Inv::total         4884                      
system.ruby.L1Cache_Controller.E.L1_Replacement |        9761      0.12%      0.12% |     8078850     99.10%     99.22% |       14306      0.18%     99.39% |       49562      0.61%    100.00%
system.ruby.L1Cache_Controller.E.L1_Replacement::total      8152479                      
system.ruby.L1Cache_Controller.E.Fwd_GETX |         689     29.94%     29.94% |          93      4.04%     33.99% |         833     36.20%     70.19% |         686     29.81%    100.00%
system.ruby.L1Cache_Controller.E.Fwd_GETX::total         2301                      
system.ruby.L1Cache_Controller.E.Fwd_GETS |        2930     34.01%     34.01% |         900     10.45%     44.46% |        3054     35.45%     79.91% |        1731     20.09%    100.00%
system.ruby.L1Cache_Controller.E.Fwd_GETS::total         8615                      
system.ruby.L1Cache_Controller.M.Load    |      791345      0.38%      0.38% |   201966511     98.13%     98.51% |      875412      0.43%     98.94% |     2189251      1.06%    100.00%
system.ruby.L1Cache_Controller.M.Load::total    205822519                      
system.ruby.L1Cache_Controller.M.Store   |      849529      0.49%      0.49% |   167979255     97.52%     98.01% |     1017662      0.59%     98.61% |     2402331      1.39%    100.00%
system.ruby.L1Cache_Controller.M.Store::total    172248777                      
system.ruby.L1Cache_Controller.M.Inv     |        2922     31.24%     31.24% |        1339     14.31%     45.55% |        2348     25.10%     70.65% |        2745     29.35%    100.00%
system.ruby.L1Cache_Controller.M.Inv::total         9354                      
system.ruby.L1Cache_Controller.M.L1_Replacement |       15301      1.80%      1.80% |      780309     91.69%     93.49% |       21612      2.54%     96.03% |       33814      3.97%    100.00%
system.ruby.L1Cache_Controller.M.L1_Replacement::total       851036                      
system.ruby.L1Cache_Controller.M.Fwd_GETX |        1483     21.74%     21.74% |        1569     23.00%     44.74% |        1433     21.01%     65.75% |        2336     34.25%    100.00%
system.ruby.L1Cache_Controller.M.Fwd_GETX::total         6821                      
system.ruby.L1Cache_Controller.M.Fwd_GETS |        7932     40.72%     40.72% |        3656     18.77%     59.49% |        3410     17.51%     77.00% |        4481     23.00%    100.00%
system.ruby.L1Cache_Controller.M.Fwd_GETS::total        19479                      
system.ruby.L1Cache_Controller.IS.Data_Exclusive |       20548      0.24%      0.24% |     8282790     98.61%     98.86% |       28997      0.35%     99.20% |       67086      0.80%    100.00%
system.ruby.L1Cache_Controller.IS.Data_Exclusive::total      8399421                      
system.ruby.L1Cache_Controller.IS.DataS_fromL1 |        6862     24.43%     24.43% |        3514     12.51%     36.93% |        5666     20.17%     57.10% |       12052     42.90%    100.00%
system.ruby.L1Cache_Controller.IS.DataS_fromL1::total        28094                      
system.ruby.L1Cache_Controller.IS.Data_all_Acks |       72640      7.56%      7.56% |      747274     77.73%     85.29% |       71572      7.44%     92.73% |       69892      7.27%    100.00%
system.ruby.L1Cache_Controller.IS.Data_all_Acks::total       961378                      
system.ruby.L1Cache_Controller.IM.Data   |          83      3.24%      3.24% |         782     30.50%     33.74% |        1458     56.86%     90.60% |         241      9.40%    100.00%
system.ruby.L1Cache_Controller.IM.Data::total         2564                      
system.ruby.L1Cache_Controller.IM.Data_all_Acks |       13955      2.21%      2.21% |      579993     91.91%     94.12% |       14067      2.23%     96.35% |       23023      3.65%    100.00%
system.ruby.L1Cache_Controller.IM.Data_all_Acks::total       631038                      
system.ruby.L1Cache_Controller.SM.Inv    |           0      0.00%      0.00% |           0      0.00%      0.00% |           0      0.00%      0.00% |           1    100.00%    100.00%
system.ruby.L1Cache_Controller.SM.Inv::total            1                      
system.ruby.L1Cache_Controller.SM.Ack    |       17420     44.39%     44.39% |        8479     21.61%     66.00% |        6397     16.30%     82.30% |        6945     17.70%    100.00%
system.ruby.L1Cache_Controller.SM.Ack::total        39241                      
system.ruby.L1Cache_Controller.SM.Ack_all |        8391     34.49%     34.49% |        5130     21.09%     55.58% |        5126     21.07%     76.65% |        5680     23.35%    100.00%
system.ruby.L1Cache_Controller.SM.Ack_all::total        24327                      
system.ruby.L1Cache_Controller.M_I.Ifetch |           0      0.00%      0.00% |           0      0.00%      0.00% |           3    100.00%    100.00% |           0      0.00%    100.00%
system.ruby.L1Cache_Controller.M_I.Ifetch::total            3                      
system.ruby.L1Cache_Controller.M_I.WB_Ack |       25062      0.28%      0.28% |     8859159     98.40%     98.68% |       35918      0.40%     99.07% |       83376      0.93%    100.00%
system.ruby.L1Cache_Controller.M_I.WB_Ack::total      9003515                      
system.ruby.L2Cache_Controller.L1_GET_INSTR       874331      0.00%      0.00%
system.ruby.L2Cache_Controller.L1_GETS        8515279      0.00%      0.00%
system.ruby.L2Cache_Controller.L1_GETX         633607      0.00%      0.00%
system.ruby.L2Cache_Controller.L1_UPGRADE        21764      0.00%      0.00%
system.ruby.L2Cache_Controller.L1_PUTX        9003515      0.00%      0.00%
system.ruby.L2Cache_Controller.L2_Replacement        48867      0.00%      0.00%
system.ruby.L2Cache_Controller.L2_Replacement_clean       143551      0.00%      0.00%
system.ruby.L2Cache_Controller.Mem_Data        201743      0.00%      0.00%
system.ruby.L2Cache_Controller.Mem_Ack         193099      0.00%      0.00%
system.ruby.L2Cache_Controller.WB_Data          28833      0.00%      0.00%
system.ruby.L2Cache_Controller.WB_Data_clean         8615      0.00%      0.00%
system.ruby.L2Cache_Controller.Ack              20780      0.00%      0.00%
system.ruby.L2Cache_Controller.Ack_all          29542      0.00%      0.00%
system.ruby.L2Cache_Controller.Unblock          28094      0.00%      0.00%
system.ruby.L2Cache_Controller.Exclusive_Unblock      9054786      0.00%      0.00%
system.ruby.L2Cache_Controller.MEM_Inv           1362      0.00%      0.00%
system.ruby.L2Cache_Controller.NP.L1_GET_INSTR        22160      0.00%      0.00%
system.ruby.L2Cache_Controller.NP.L1_GETS       145450      0.00%      0.00%
system.ruby.L2Cache_Controller.NP.L1_GETX        34133      0.00%      0.00%
system.ruby.L2Cache_Controller.SS.L1_GET_INSTR       852150      0.00%      0.00%
system.ruby.L2Cache_Controller.SS.L1_GETS        87046      0.00%      0.00%
system.ruby.L2Cache_Controller.SS.L1_GETX         2564      0.00%      0.00%
system.ruby.L2Cache_Controller.SS.L1_UPGRADE        21763      0.00%      0.00%
system.ruby.L2Cache_Controller.SS.L2_Replacement         1221      0.00%      0.00%
system.ruby.L2Cache_Controller.SS.L2_Replacement_clean        23311      0.00%      0.00%
system.ruby.L2Cache_Controller.SS.MEM_Inv          126      0.00%      0.00%
system.ruby.L2Cache_Controller.M.L1_GET_INSTR           18      0.00%      0.00%
system.ruby.L2Cache_Controller.M.L1_GETS      8253972      0.00%      0.00%
system.ruby.L2Cache_Controller.M.L1_GETX       587783      0.00%      0.00%
system.ruby.L2Cache_Controller.M.L2_Replacement        45348      0.00%      0.00%
system.ruby.L2Cache_Controller.M.L2_Replacement_clean       108465      0.00%      0.00%
system.ruby.L2Cache_Controller.M.MEM_Inv          390      0.00%      0.00%
system.ruby.L2Cache_Controller.MT.L1_GETS        28094      0.00%      0.00%
system.ruby.L2Cache_Controller.MT.L1_GETX         9122      0.00%      0.00%
system.ruby.L2Cache_Controller.MT.L1_PUTX      9003515      0.00%      0.00%
system.ruby.L2Cache_Controller.MT.L2_Replacement         2298      0.00%      0.00%
system.ruby.L2Cache_Controller.MT.L2_Replacement_clean        11775      0.00%      0.00%
system.ruby.L2Cache_Controller.MT.MEM_Inv          165      0.00%      0.00%
system.ruby.L2Cache_Controller.M_I.L1_GET_INSTR            1      0.00%      0.00%
system.ruby.L2Cache_Controller.M_I.L1_GETS            3      0.00%      0.00%
system.ruby.L2Cache_Controller.M_I.Mem_Ack       193099      0.00%      0.00%
system.ruby.L2Cache_Controller.M_I.MEM_Inv          390      0.00%      0.00%
system.ruby.L2Cache_Controller.MT_I.WB_Data         2063      0.00%      0.00%
system.ruby.L2Cache_Controller.MT_I.Ack_all          400      0.00%      0.00%
system.ruby.L2Cache_Controller.MT_I.MEM_Inv          165      0.00%      0.00%
system.ruby.L2Cache_Controller.MCT_I.WB_Data         7291      0.00%      0.00%
system.ruby.L2Cache_Controller.MCT_I.Ack_all         4484      0.00%      0.00%
system.ruby.L2Cache_Controller.I_I.Ack          19187      0.00%      0.00%
system.ruby.L2Cache_Controller.I_I.Ack_all        23311      0.00%      0.00%
system.ruby.L2Cache_Controller.S_I.Ack           1593      0.00%      0.00%
system.ruby.L2Cache_Controller.S_I.Ack_all         1347      0.00%      0.00%
system.ruby.L2Cache_Controller.S_I.MEM_Inv          126      0.00%      0.00%
system.ruby.L2Cache_Controller.ISS.L1_GETS            1      0.00%      0.00%
system.ruby.L2Cache_Controller.ISS.Mem_Data       145449      0.00%      0.00%
system.ruby.L2Cache_Controller.IS.L1_GET_INSTR            2      0.00%      0.00%
system.ruby.L2Cache_Controller.IS.Mem_Data        22161      0.00%      0.00%
system.ruby.L2Cache_Controller.IM.Mem_Data        34133      0.00%      0.00%
system.ruby.L2Cache_Controller.SS_MB.L1_GETS           95      0.00%      0.00%
system.ruby.L2Cache_Controller.SS_MB.L1_GETX            3      0.00%      0.00%
system.ruby.L2Cache_Controller.SS_MB.L1_UPGRADE            1      0.00%      0.00%
system.ruby.L2Cache_Controller.SS_MB.Exclusive_Unblock        24327      0.00%      0.00%
system.ruby.L2Cache_Controller.MT_MB.L1_GETS          615      0.00%      0.00%
system.ruby.L2Cache_Controller.MT_MB.L1_GETX            2      0.00%      0.00%
system.ruby.L2Cache_Controller.MT_MB.Exclusive_Unblock      9030459      0.00%      0.00%
system.ruby.L2Cache_Controller.MT_IIB.L1_GETS            3      0.00%      0.00%
system.ruby.L2Cache_Controller.MT_IIB.WB_Data        19464      0.00%      0.00%
system.ruby.L2Cache_Controller.MT_IIB.WB_Data_clean         8607      0.00%      0.00%
system.ruby.L2Cache_Controller.MT_IIB.Unblock           23      0.00%      0.00%
system.ruby.L2Cache_Controller.MT_IB.WB_Data           15      0.00%      0.00%
system.ruby.L2Cache_Controller.MT_IB.WB_Data_clean            8      0.00%      0.00%
system.ruby.L2Cache_Controller.MT_SB.Unblock        28071      0.00%      0.00%

---------- End Simulation Statistics   ----------
