
---------- Begin Simulation Statistics ----------
sim_seconds                                  1.197556                       # Number of seconds simulated
sim_ticks                                1197556063500                       # Number of ticks simulated
final_tick                               53600514124001                       # Number of ticks from beginning of simulation (restored from checkpoints and never reset)
sim_freq                                 1000000000000                       # Frequency of simulated ticks
host_inst_rate                                 128215                       # Simulator instruction rate (inst/s)
host_op_rate                                   171530                       # Simulator op (including micro ops) rate (op/s)
host_tick_rate                              283588671                       # Simulator tick rate (ticks/s)
host_mem_usage                                2319144                       # Number of bytes of host memory used
host_seconds                                  4222.86                       # Real time elapsed on the host
sim_insts                                   541434354                       # Number of instructions simulated
sim_ops                                     724349224                       # Number of ops (including micro ops) simulated
system.voltage_domain.voltage                       1                       # Voltage in Volts
system.clk_domain.clock                          1000                       # Clock period in ticks
system.mem_ctrls.bytes_read::ruby.dir_cntrl0    203174528                       # Number of bytes read from this memory
system.mem_ctrls.bytes_read::total          203174528                       # Number of bytes read from this memory
system.mem_ctrls.bytes_written::ruby.dir_cntrl0     99895360                       # Number of bytes written to this memory
system.mem_ctrls.bytes_written::total        99895360                       # Number of bytes written to this memory
system.mem_ctrls.num_reads::ruby.dir_cntrl0      3174602                       # Number of read requests responded to by this memory
system.mem_ctrls.num_reads::total             3174602                       # Number of read requests responded to by this memory
system.mem_ctrls.num_writes::ruby.dir_cntrl0      1560865                       # Number of write requests responded to by this memory
system.mem_ctrls.num_writes::total            1560865                       # Number of write requests responded to by this memory
system.mem_ctrls.bw_read::ruby.dir_cntrl0    169657634                       # Total read bandwidth from this memory (bytes/s)
system.mem_ctrls.bw_read::total             169657634                       # Total read bandwidth from this memory (bytes/s)
system.mem_ctrls.bw_write::ruby.dir_cntrl0     83416020                       # Write bandwidth from this memory (bytes/s)
system.mem_ctrls.bw_write::total             83416020                       # Write bandwidth from this memory (bytes/s)
system.mem_ctrls.bw_total::ruby.dir_cntrl0    253073653                       # Total bandwidth to/from this memory (bytes/s)
system.mem_ctrls.bw_total::total            253073653                       # Total bandwidth to/from this memory (bytes/s)
system.mem_ctrls.readReqs                     3174602                       # Number of read requests accepted
system.mem_ctrls.writeReqs                    1560865                       # Number of write requests accepted
system.mem_ctrls.readBursts                   3174602                       # Number of DRAM read bursts, including those serviced by the write queue
system.mem_ctrls.writeBursts                  1560865                       # Number of DRAM write bursts, including those merged in the write queue
system.mem_ctrls.bytesReadDRAM              203165696                       # Total number of bytes read from DRAM
system.mem_ctrls.bytesReadWrQ                    8832                       # Total number of bytes read from write queue
system.mem_ctrls.bytesWritten                99895488                       # Total number of bytes written to DRAM
system.mem_ctrls.bytesReadSys               203174528                       # Total read bytes from the system interface side
system.mem_ctrls.bytesWrittenSys             99895360                       # Total written bytes from the system interface side
system.mem_ctrls.servicedByWrQ                    138                       # Number of DRAM read bursts serviced by the write queue
system.mem_ctrls.mergedWrBursts                     0                       # Number of DRAM write bursts merged with an existing one
system.mem_ctrls.neitherReadNorWriteReqs            0                       # Number of requests that are neither read nor write
system.mem_ctrls.perBankRdBursts::0            198504                       # Per bank write bursts
system.mem_ctrls.perBankRdBursts::1            200735                       # Per bank write bursts
system.mem_ctrls.perBankRdBursts::2            198345                       # Per bank write bursts
system.mem_ctrls.perBankRdBursts::3            197867                       # Per bank write bursts
system.mem_ctrls.perBankRdBursts::4            199175                       # Per bank write bursts
system.mem_ctrls.perBankRdBursts::5            197527                       # Per bank write bursts
system.mem_ctrls.perBankRdBursts::6            197185                       # Per bank write bursts
system.mem_ctrls.perBankRdBursts::7            197748                       # Per bank write bursts
system.mem_ctrls.perBankRdBursts::8            199356                       # Per bank write bursts
system.mem_ctrls.perBankRdBursts::9            197267                       # Per bank write bursts
system.mem_ctrls.perBankRdBursts::10           198510                       # Per bank write bursts
system.mem_ctrls.perBankRdBursts::11           197437                       # Per bank write bursts
system.mem_ctrls.perBankRdBursts::12           198302                       # Per bank write bursts
system.mem_ctrls.perBankRdBursts::13           197826                       # Per bank write bursts
system.mem_ctrls.perBankRdBursts::14           199212                       # Per bank write bursts
system.mem_ctrls.perBankRdBursts::15           199468                       # Per bank write bursts
system.mem_ctrls.perBankWrBursts::0             97776                       # Per bank write bursts
system.mem_ctrls.perBankWrBursts::1             98899                       # Per bank write bursts
system.mem_ctrls.perBankWrBursts::2             97685                       # Per bank write bursts
system.mem_ctrls.perBankWrBursts::3             97114                       # Per bank write bursts
system.mem_ctrls.perBankWrBursts::4             97922                       # Per bank write bursts
system.mem_ctrls.perBankWrBursts::5             97300                       # Per bank write bursts
system.mem_ctrls.perBankWrBursts::6             96901                       # Per bank write bursts
system.mem_ctrls.perBankWrBursts::7             97165                       # Per bank write bursts
system.mem_ctrls.perBankWrBursts::8             98343                       # Per bank write bursts
system.mem_ctrls.perBankWrBursts::9             96987                       # Per bank write bursts
system.mem_ctrls.perBankWrBursts::10            97620                       # Per bank write bursts
system.mem_ctrls.perBankWrBursts::11            97204                       # Per bank write bursts
system.mem_ctrls.perBankWrBursts::12            97437                       # Per bank write bursts
system.mem_ctrls.perBankWrBursts::13            96899                       # Per bank write bursts
system.mem_ctrls.perBankWrBursts::14            97795                       # Per bank write bursts
system.mem_ctrls.perBankWrBursts::15            97820                       # Per bank write bursts
system.mem_ctrls.numRdRetry                         0                       # Number of times read queue was full causing retry
system.mem_ctrls.numWrRetry                         0                       # Number of times write queue was full causing retry
system.mem_ctrls.totGap                  1197555992500                       # Total gap between requests
system.mem_ctrls.readPktSize::0                     0                       # Read request sizes (log2)
system.mem_ctrls.readPktSize::1                     0                       # Read request sizes (log2)
system.mem_ctrls.readPktSize::2                     0                       # Read request sizes (log2)
system.mem_ctrls.readPktSize::3                     0                       # Read request sizes (log2)
system.mem_ctrls.readPktSize::4                     0                       # Read request sizes (log2)
system.mem_ctrls.readPktSize::5                     0                       # Read request sizes (log2)
system.mem_ctrls.readPktSize::6               3174602                       # Read request sizes (log2)
system.mem_ctrls.writePktSize::0                    0                       # Write request sizes (log2)
system.mem_ctrls.writePktSize::1                    0                       # Write request sizes (log2)
system.mem_ctrls.writePktSize::2                    0                       # Write request sizes (log2)
system.mem_ctrls.writePktSize::3                    0                       # Write request sizes (log2)
system.mem_ctrls.writePktSize::4                    0                       # Write request sizes (log2)
system.mem_ctrls.writePktSize::5                    0                       # Write request sizes (log2)
system.mem_ctrls.writePktSize::6              1560865                       # Write request sizes (log2)
system.mem_ctrls.rdQLenPdf::0                 3173285                       # What read queue length does an incoming req see
system.mem_ctrls.rdQLenPdf::1                    1178                       # What read queue length does an incoming req see
system.mem_ctrls.rdQLenPdf::2                       1                       # What read queue length does an incoming req see
system.mem_ctrls.rdQLenPdf::3                       0                       # What read queue length does an incoming req see
system.mem_ctrls.rdQLenPdf::4                       0                       # What read queue length does an incoming req see
system.mem_ctrls.rdQLenPdf::5                       0                       # What read queue length does an incoming req see
system.mem_ctrls.rdQLenPdf::6                       0                       # What read queue length does an incoming req see
system.mem_ctrls.rdQLenPdf::7                       0                       # What read queue length does an incoming req see
system.mem_ctrls.rdQLenPdf::8                       0                       # What read queue length does an incoming req see
system.mem_ctrls.rdQLenPdf::9                       0                       # What read queue length does an incoming req see
system.mem_ctrls.rdQLenPdf::10                      0                       # What read queue length does an incoming req see
system.mem_ctrls.rdQLenPdf::11                      0                       # What read queue length does an incoming req see
system.mem_ctrls.rdQLenPdf::12                      0                       # What read queue length does an incoming req see
system.mem_ctrls.rdQLenPdf::13                      0                       # What read queue length does an incoming req see
system.mem_ctrls.rdQLenPdf::14                      0                       # What read queue length does an incoming req see
system.mem_ctrls.rdQLenPdf::15                      0                       # What read queue length does an incoming req see
system.mem_ctrls.rdQLenPdf::16                      0                       # What read queue length does an incoming req see
system.mem_ctrls.rdQLenPdf::17                      0                       # What read queue length does an incoming req see
system.mem_ctrls.rdQLenPdf::18                      0                       # What read queue length does an incoming req see
system.mem_ctrls.rdQLenPdf::19                      0                       # What read queue length does an incoming req see
system.mem_ctrls.rdQLenPdf::20                      0                       # What read queue length does an incoming req see
system.mem_ctrls.rdQLenPdf::21                      0                       # What read queue length does an incoming req see
system.mem_ctrls.rdQLenPdf::22                      0                       # What read queue length does an incoming req see
system.mem_ctrls.rdQLenPdf::23                      0                       # What read queue length does an incoming req see
system.mem_ctrls.rdQLenPdf::24                      0                       # What read queue length does an incoming req see
system.mem_ctrls.rdQLenPdf::25                      0                       # What read queue length does an incoming req see
system.mem_ctrls.rdQLenPdf::26                      0                       # What read queue length does an incoming req see
system.mem_ctrls.rdQLenPdf::27                      0                       # What read queue length does an incoming req see
system.mem_ctrls.rdQLenPdf::28                      0                       # What read queue length does an incoming req see
system.mem_ctrls.rdQLenPdf::29                      0                       # What read queue length does an incoming req see
system.mem_ctrls.rdQLenPdf::30                      0                       # What read queue length does an incoming req see
system.mem_ctrls.rdQLenPdf::31                      0                       # What read queue length does an incoming req see
system.mem_ctrls.wrQLenPdf::0                       0                       # What write queue length does an incoming req see
system.mem_ctrls.wrQLenPdf::1                       0                       # What write queue length does an incoming req see
system.mem_ctrls.wrQLenPdf::2                       0                       # What write queue length does an incoming req see
system.mem_ctrls.wrQLenPdf::3                       0                       # What write queue length does an incoming req see
system.mem_ctrls.wrQLenPdf::4                       0                       # What write queue length does an incoming req see
system.mem_ctrls.wrQLenPdf::5                       0                       # What write queue length does an incoming req see
system.mem_ctrls.wrQLenPdf::6                       0                       # What write queue length does an incoming req see
system.mem_ctrls.wrQLenPdf::7                       0                       # What write queue length does an incoming req see
system.mem_ctrls.wrQLenPdf::8                       0                       # What write queue length does an incoming req see
system.mem_ctrls.wrQLenPdf::9                       0                       # What write queue length does an incoming req see
system.mem_ctrls.wrQLenPdf::10                      0                       # What write queue length does an incoming req see
system.mem_ctrls.wrQLenPdf::11                      0                       # What write queue length does an incoming req see
system.mem_ctrls.wrQLenPdf::12                      0                       # What write queue length does an incoming req see
system.mem_ctrls.wrQLenPdf::13                      0                       # What write queue length does an incoming req see
system.mem_ctrls.wrQLenPdf::14                      0                       # What write queue length does an incoming req see
system.mem_ctrls.wrQLenPdf::15                  17955                       # What write queue length does an incoming req see
system.mem_ctrls.wrQLenPdf::16                  23319                       # What write queue length does an incoming req see
system.mem_ctrls.wrQLenPdf::17                  74116                       # What write queue length does an incoming req see
system.mem_ctrls.wrQLenPdf::18                  92950                       # What write queue length does an incoming req see
system.mem_ctrls.wrQLenPdf::19                  96345                       # What write queue length does an incoming req see
system.mem_ctrls.wrQLenPdf::20                  96890                       # What write queue length does an incoming req see
system.mem_ctrls.wrQLenPdf::21                  97112                       # What write queue length does an incoming req see
system.mem_ctrls.wrQLenPdf::22                  97214                       # What write queue length does an incoming req see
system.mem_ctrls.wrQLenPdf::23                  97170                       # What write queue length does an incoming req see
system.mem_ctrls.wrQLenPdf::24                  97244                       # What write queue length does an incoming req see
system.mem_ctrls.wrQLenPdf::25                  97489                       # What write queue length does an incoming req see
system.mem_ctrls.wrQLenPdf::26                  97671                       # What write queue length does an incoming req see
system.mem_ctrls.wrQLenPdf::27                  97287                       # What write queue length does an incoming req see
system.mem_ctrls.wrQLenPdf::28                  96861                       # What write queue length does an incoming req see
system.mem_ctrls.wrQLenPdf::29                  96028                       # What write queue length does an incoming req see
system.mem_ctrls.wrQLenPdf::30                  95386                       # What write queue length does an incoming req see
system.mem_ctrls.wrQLenPdf::31                  94790                       # What write queue length does an incoming req see
system.mem_ctrls.wrQLenPdf::32                  94569                       # What write queue length does an incoming req see
system.mem_ctrls.wrQLenPdf::33                    359                       # What write queue length does an incoming req see
system.mem_ctrls.wrQLenPdf::34                     74                       # What write queue length does an incoming req see
system.mem_ctrls.wrQLenPdf::35                     16                       # What write queue length does an incoming req see
system.mem_ctrls.wrQLenPdf::36                      8                       # What write queue length does an incoming req see
system.mem_ctrls.wrQLenPdf::37                      6                       # What write queue length does an incoming req see
system.mem_ctrls.wrQLenPdf::38                      4                       # What write queue length does an incoming req see
system.mem_ctrls.wrQLenPdf::39                      2                       # What write queue length does an incoming req see
system.mem_ctrls.wrQLenPdf::40                      0                       # What write queue length does an incoming req see
system.mem_ctrls.wrQLenPdf::41                      0                       # What write queue length does an incoming req see
system.mem_ctrls.wrQLenPdf::42                      0                       # What write queue length does an incoming req see
system.mem_ctrls.wrQLenPdf::43                      0                       # What write queue length does an incoming req see
system.mem_ctrls.wrQLenPdf::44                      0                       # What write queue length does an incoming req see
system.mem_ctrls.wrQLenPdf::45                      0                       # What write queue length does an incoming req see
system.mem_ctrls.wrQLenPdf::46                      0                       # What write queue length does an incoming req see
system.mem_ctrls.wrQLenPdf::47                      0                       # What write queue length does an incoming req see
system.mem_ctrls.wrQLenPdf::48                      0                       # What write queue length does an incoming req see
system.mem_ctrls.wrQLenPdf::49                      0                       # What write queue length does an incoming req see
system.mem_ctrls.wrQLenPdf::50                      0                       # What write queue length does an incoming req see
system.mem_ctrls.wrQLenPdf::51                      0                       # What write queue length does an incoming req see
system.mem_ctrls.wrQLenPdf::52                      0                       # What write queue length does an incoming req see
system.mem_ctrls.wrQLenPdf::53                      0                       # What write queue length does an incoming req see
system.mem_ctrls.wrQLenPdf::54                      0                       # What write queue length does an incoming req see
system.mem_ctrls.wrQLenPdf::55                      0                       # What write queue length does an incoming req see
system.mem_ctrls.wrQLenPdf::56                      0                       # What write queue length does an incoming req see
system.mem_ctrls.wrQLenPdf::57                      0                       # What write queue length does an incoming req see
system.mem_ctrls.wrQLenPdf::58                      0                       # What write queue length does an incoming req see
system.mem_ctrls.wrQLenPdf::59                      0                       # What write queue length does an incoming req see
system.mem_ctrls.wrQLenPdf::60                      0                       # What write queue length does an incoming req see
system.mem_ctrls.wrQLenPdf::61                      0                       # What write queue length does an incoming req see
system.mem_ctrls.wrQLenPdf::62                      0                       # What write queue length does an incoming req see
system.mem_ctrls.wrQLenPdf::63                      0                       # What write queue length does an incoming req see
system.mem_ctrls.bytesPerActivate::samples      2079643                       # Bytes accessed per row activation
system.mem_ctrls.bytesPerActivate::mean    145.727566                       # Bytes accessed per row activation
system.mem_ctrls.bytesPerActivate::gmean    96.540364                       # Bytes accessed per row activation
system.mem_ctrls.bytesPerActivate::stdev   209.014587                       # Bytes accessed per row activation
system.mem_ctrls.bytesPerActivate::0-127      1384602     66.58%     66.58% # Bytes accessed per row activation
system.mem_ctrls.bytesPerActivate::128-255       454563     21.86%     88.44% # Bytes accessed per row activation
system.mem_ctrls.bytesPerActivate::256-383        72265      3.47%     91.91% # Bytes accessed per row activation
system.mem_ctrls.bytesPerActivate::384-511        27710      1.33%     93.24% # Bytes accessed per row activation
system.mem_ctrls.bytesPerActivate::512-639        23510      1.13%     94.37% # Bytes accessed per row activation
system.mem_ctrls.bytesPerActivate::640-767        17063      0.82%     95.19% # Bytes accessed per row activation
system.mem_ctrls.bytesPerActivate::768-895        13776      0.66%     95.86% # Bytes accessed per row activation
system.mem_ctrls.bytesPerActivate::896-1023        13892      0.67%     96.53% # Bytes accessed per row activation
system.mem_ctrls.bytesPerActivate::1024-1151        72262      3.47%    100.00% # Bytes accessed per row activation
system.mem_ctrls.bytesPerActivate::total      2079643                       # Bytes accessed per row activation
system.mem_ctrls.rdPerTurnAround::samples        94550                       # Reads before turning the bus around for writes
system.mem_ctrls.rdPerTurnAround::mean      33.575145                       # Reads before turning the bus around for writes
system.mem_ctrls.rdPerTurnAround::stdev     29.913670                       # Reads before turning the bus around for writes
system.mem_ctrls.rdPerTurnAround::0-31          53940     57.05%     57.05% # Reads before turning the bus around for writes
system.mem_ctrls.rdPerTurnAround::32-63         30843     32.62%     89.67% # Reads before turning the bus around for writes
system.mem_ctrls.rdPerTurnAround::64-95          6450      6.82%     96.49% # Reads before turning the bus around for writes
system.mem_ctrls.rdPerTurnAround::96-127         1816      1.92%     98.41% # Reads before turning the bus around for writes
system.mem_ctrls.rdPerTurnAround::128-159          797      0.84%     99.26% # Reads before turning the bus around for writes
system.mem_ctrls.rdPerTurnAround::160-191          283      0.30%     99.55% # Reads before turning the bus around for writes
system.mem_ctrls.rdPerTurnAround::192-223          188      0.20%     99.75% # Reads before turning the bus around for writes
system.mem_ctrls.rdPerTurnAround::224-255           72      0.08%     99.83% # Reads before turning the bus around for writes
system.mem_ctrls.rdPerTurnAround::256-287           57      0.06%     99.89% # Reads before turning the bus around for writes
system.mem_ctrls.rdPerTurnAround::288-319           30      0.03%     99.92% # Reads before turning the bus around for writes
system.mem_ctrls.rdPerTurnAround::320-351           19      0.02%     99.94% # Reads before turning the bus around for writes
system.mem_ctrls.rdPerTurnAround::352-383           14      0.01%     99.96% # Reads before turning the bus around for writes
system.mem_ctrls.rdPerTurnAround::384-415            4      0.00%     99.96% # Reads before turning the bus around for writes
system.mem_ctrls.rdPerTurnAround::416-447            4      0.00%     99.97% # Reads before turning the bus around for writes
system.mem_ctrls.rdPerTurnAround::448-479            4      0.00%     99.97% # Reads before turning the bus around for writes
system.mem_ctrls.rdPerTurnAround::512-543           15      0.02%     99.99% # Reads before turning the bus around for writes
system.mem_ctrls.rdPerTurnAround::544-575            3      0.00%     99.99% # Reads before turning the bus around for writes
system.mem_ctrls.rdPerTurnAround::576-607            2      0.00%     99.99% # Reads before turning the bus around for writes
system.mem_ctrls.rdPerTurnAround::640-671            4      0.00%     99.99% # Reads before turning the bus around for writes
system.mem_ctrls.rdPerTurnAround::704-735            4      0.00%    100.00% # Reads before turning the bus around for writes
system.mem_ctrls.rdPerTurnAround::768-799            1      0.00%    100.00% # Reads before turning the bus around for writes
system.mem_ctrls.rdPerTurnAround::total         94550                       # Reads before turning the bus around for writes
system.mem_ctrls.wrPerTurnAround::samples        94550                       # Writes before turning the bus around for reads
system.mem_ctrls.wrPerTurnAround::mean      16.508377                       # Writes before turning the bus around for reads
system.mem_ctrls.wrPerTurnAround::gmean     16.480637                       # Writes before turning the bus around for reads
system.mem_ctrls.wrPerTurnAround::stdev      0.998009                       # Writes before turning the bus around for reads
system.mem_ctrls.wrPerTurnAround::16            71234     75.34%     75.34% # Writes before turning the bus around for reads
system.mem_ctrls.wrPerTurnAround::17             4464      4.72%     80.06% # Writes before turning the bus around for reads
system.mem_ctrls.wrPerTurnAround::18            15199     16.08%     96.14% # Writes before turning the bus around for reads
system.mem_ctrls.wrPerTurnAround::19             2473      2.62%     98.75% # Writes before turning the bus around for reads
system.mem_ctrls.wrPerTurnAround::20              688      0.73%     99.48% # Writes before turning the bus around for reads
system.mem_ctrls.wrPerTurnAround::21              229      0.24%     99.72% # Writes before turning the bus around for reads
system.mem_ctrls.wrPerTurnAround::22              135      0.14%     99.86% # Writes before turning the bus around for reads
system.mem_ctrls.wrPerTurnAround::23               54      0.06%     99.92% # Writes before turning the bus around for reads
system.mem_ctrls.wrPerTurnAround::24               27      0.03%     99.95% # Writes before turning the bus around for reads
system.mem_ctrls.wrPerTurnAround::25               18      0.02%     99.97% # Writes before turning the bus around for reads
system.mem_ctrls.wrPerTurnAround::26               12      0.01%     99.98% # Writes before turning the bus around for reads
system.mem_ctrls.wrPerTurnAround::27               10      0.01%     99.99% # Writes before turning the bus around for reads
system.mem_ctrls.wrPerTurnAround::28                4      0.00%    100.00% # Writes before turning the bus around for reads
system.mem_ctrls.wrPerTurnAround::30                2      0.00%    100.00% # Writes before turning the bus around for reads
system.mem_ctrls.wrPerTurnAround::33                1      0.00%    100.00% # Writes before turning the bus around for reads
system.mem_ctrls.wrPerTurnAround::total         94550                       # Writes before turning the bus around for reads
system.mem_ctrls.totQLat                  52164493500                       # Total ticks spent queuing
system.mem_ctrls.totMemAccLat            111685693500                       # Total ticks spent from burst creation until serviced by the DRAM
system.mem_ctrls.totBusLat                15872320000                       # Total ticks spent in databus transfers
system.mem_ctrls.avgQLat                     16432.54                       # Average queueing delay per DRAM burst
system.mem_ctrls.avgBusLat                    5000.00                       # Average bus latency per DRAM burst
system.mem_ctrls.avgMemAccLat                35182.54                       # Average memory access latency per DRAM burst
system.mem_ctrls.avgRdBW                       169.65                       # Average DRAM read bandwidth in MiByte/s
system.mem_ctrls.avgWrBW                        83.42                       # Average achieved write bandwidth in MiByte/s
system.mem_ctrls.avgRdBWSys                    169.66                       # Average system read bandwidth in MiByte/s
system.mem_ctrls.avgWrBWSys                     83.42                       # Average system write bandwidth in MiByte/s
system.mem_ctrls.peakBW                      12800.00                       # Theoretical peak bandwidth in MiByte/s
system.mem_ctrls.busUtil                         1.98                       # Data bus utilization in percentage
system.mem_ctrls.busUtilRead                     1.33                       # Data bus utilization in percentage for reads
system.mem_ctrls.busUtilWrite                    0.65                       # Data bus utilization in percentage for writes
system.mem_ctrls.avgRdQLen                       1.00                       # Average read queue length when enqueuing
system.mem_ctrls.avgWrQLen                      25.27                       # Average write queue length when enqueuing
system.mem_ctrls.readRowHits                  1902308                       # Number of row buffer hits during reads
system.mem_ctrls.writeRowHits                  753380                       # Number of row buffer hits during writes
system.mem_ctrls.readRowHitRate                 59.93                       # Row buffer hit rate for reads
system.mem_ctrls.writeRowHitRate                48.27                       # Row buffer hit rate for writes
system.mem_ctrls.avgGap                     252890.79                       # Average gap between requests
system.mem_ctrls.pageHitRate                    56.08                       # Row buffer hit rate, read and write combined
system.mem_ctrls_0.actEnergy               7893199440                       # Energy for activate commands per rank (pJ)
system.mem_ctrls_0.preEnergy               4306805250                       # Energy for precharge commands per rank (pJ)
system.mem_ctrls_0.readEnergy             12519319800                       # Energy for read commands per rank (pJ)
system.mem_ctrls_0.writeEnergy             5061016080                       # Energy for write commands per rank (pJ)
system.mem_ctrls_0.refreshEnergy          78688980240                       # Energy for refresh commands per rank (pJ)
system.mem_ctrls_0.actBackEnergy         281066465340                       # Energy for active background per rank (pJ)
system.mem_ctrls_0.preBackEnergy         476305830750                       # Energy for precharge background per rank (pJ)
system.mem_ctrls_0.totalEnergy           865841616900                       # Total energy per rank (pJ)
system.mem_ctrls_0.averagePower            718.684536                       # Core power per rank (mW)
system.mem_ctrls_0.memoryStateTime::IDLE 784835118250                       # Time in different power states
system.mem_ctrls_0.memoryStateTime::REF   39989040000                       # Time in different power states
system.mem_ctrls_0.memoryStateTime::PRE_PDN            0                       # Time in different power states
system.mem_ctrls_0.memoryStateTime::ACT  372732006250                       # Time in different power states
system.mem_ctrls_0.memoryStateTime::ACT_PDN            0                       # Time in different power states
system.mem_ctrls_1.actEnergy               7874284320                       # Energy for activate commands per rank (pJ)
system.mem_ctrls_1.preEnergy               4296484500                       # Energy for precharge commands per rank (pJ)
system.mem_ctrls_1.readEnergy             12515614800                       # Energy for read commands per rank (pJ)
system.mem_ctrls_1.writeEnergy             5055994080                       # Energy for write commands per rank (pJ)
system.mem_ctrls_1.refreshEnergy          78688980240                       # Energy for refresh commands per rank (pJ)
system.mem_ctrls_1.actBackEnergy         281308427775                       # Energy for active background per rank (pJ)
system.mem_ctrls_1.preBackEnergy         476093583000                       # Energy for precharge background per rank (pJ)
system.mem_ctrls_1.totalEnergy           865833368715                       # Total energy per rank (pJ)
system.mem_ctrls_1.averagePower            718.677690                       # Core power per rank (mW)
system.mem_ctrls_1.memoryStateTime::IDLE 784673480250                       # Time in different power states
system.mem_ctrls_1.memoryStateTime::REF   39989040000                       # Time in different power states
system.mem_ctrls_1.memoryStateTime::PRE_PDN            0                       # Time in different power states
system.mem_ctrls_1.memoryStateTime::ACT  372893874750                       # Time in different power states
system.mem_ctrls_1.memoryStateTime::ACT_PDN            0                       # Time in different power states
system.cpu_voltage_domain.voltage                   1                       # Voltage in Volts
system.cpu_clk_domain.clock                       500                       # Clock period in ticks
system.cpu0.apic_clk_domain.clock                8000                       # Clock period in ticks
system.cpu0.numCycles                      2393136698                       # number of cpu cycles simulated
system.cpu0.numWorkItemsStarted                     0                       # number of work items this cpu started
system.cpu0.numWorkItemsCompleted                   0                       # number of work items this cpu completed
system.cpu0.kern.inst.arm                           0                       # number of arm instructions executed
system.cpu0.kern.inst.quiesce                       0                       # number of quiesce instructions executed
system.cpu0.committedInsts                    3084621                       # Number of instructions committed
system.cpu0.committedOps                      6171215                       # Number of ops (including micro ops) committed
system.cpu0.num_int_alu_accesses              6063104                       # Number of integer alu accesses
system.cpu0.num_fp_alu_accesses                  1826                       # Number of float alu accesses
system.cpu0.num_func_calls                     164642                       # number of times a function call or return occured
system.cpu0.num_conditional_control_insts       505919                       # number of instructions that are conditional controls
system.cpu0.num_int_insts                     6063104                       # number of integer instructions
system.cpu0.num_fp_insts                         1826                       # number of float instructions
system.cpu0.num_int_register_reads           12090391                       # number of times the integer registers were read
system.cpu0.num_int_register_writes           4926541                       # number of times the integer registers were written
system.cpu0.num_fp_register_reads                3068                       # number of times the floating registers were read
system.cpu0.num_fp_register_writes               1448                       # number of times the floating registers were written
system.cpu0.num_cc_register_reads             3811562                       # number of times the CC registers were read
system.cpu0.num_cc_register_writes            2098167                       # number of times the CC registers were written
system.cpu0.num_mem_refs                      1394220                       # number of memory refs
system.cpu0.num_load_insts                     899090                       # Number of load instructions
system.cpu0.num_store_insts                    495130                       # Number of store instructions
system.cpu0.num_idle_cycles              2379635486.657660                       # Number of idle cycles
system.cpu0.num_busy_cycles              13501211.342339                       # Number of busy cycles
system.cpu0.not_idle_fraction                0.005642                       # Percentage of non-idle cycles
system.cpu0.idle_fraction                    0.994358                       # Percentage of idle cycles
system.cpu0.Branches                           701248                       # Number of branches fetched
system.cpu0.op_class::No_OpClass                39821      0.65%      0.65% # Class of executed instruction
system.cpu0.op_class::IntAlu                  4719025     76.47%     77.11% # Class of executed instruction
system.cpu0.op_class::IntMult                    4922      0.08%     77.19% # Class of executed instruction
system.cpu0.op_class::IntDiv                    11941      0.19%     77.39% # Class of executed instruction
system.cpu0.op_class::FloatAdd                   1376      0.02%     77.41% # Class of executed instruction
system.cpu0.op_class::FloatCmp                      0      0.00%     77.41% # Class of executed instruction
system.cpu0.op_class::FloatCvt                      0      0.00%     77.41% # Class of executed instruction
system.cpu0.op_class::FloatMult                     0      0.00%     77.41% # Class of executed instruction
system.cpu0.op_class::FloatDiv                      0      0.00%     77.41% # Class of executed instruction
system.cpu0.op_class::FloatSqrt                     0      0.00%     77.41% # Class of executed instruction
system.cpu0.op_class::SimdAdd                       0      0.00%     77.41% # Class of executed instruction
system.cpu0.op_class::SimdAddAcc                    0      0.00%     77.41% # Class of executed instruction
system.cpu0.op_class::SimdAlu                       0      0.00%     77.41% # Class of executed instruction
system.cpu0.op_class::SimdCmp                       0      0.00%     77.41% # Class of executed instruction
system.cpu0.op_class::SimdCvt                       0      0.00%     77.41% # Class of executed instruction
system.cpu0.op_class::SimdMisc                      0      0.00%     77.41% # Class of executed instruction
system.cpu0.op_class::SimdMult                      0      0.00%     77.41% # Class of executed instruction
system.cpu0.op_class::SimdMultAcc                   0      0.00%     77.41% # Class of executed instruction
system.cpu0.op_class::SimdShift                     0      0.00%     77.41% # Class of executed instruction
system.cpu0.op_class::SimdShiftAcc                  0      0.00%     77.41% # Class of executed instruction
system.cpu0.op_class::SimdSqrt                      0      0.00%     77.41% # Class of executed instruction
system.cpu0.op_class::SimdFloatAdd                  0      0.00%     77.41% # Class of executed instruction
system.cpu0.op_class::SimdFloatAlu                  0      0.00%     77.41% # Class of executed instruction
system.cpu0.op_class::SimdFloatCmp                  0      0.00%     77.41% # Class of executed instruction
system.cpu0.op_class::SimdFloatCvt                  0      0.00%     77.41% # Class of executed instruction
system.cpu0.op_class::SimdFloatDiv                  0      0.00%     77.41% # Class of executed instruction
system.cpu0.op_class::SimdFloatMisc                 0      0.00%     77.41% # Class of executed instruction
system.cpu0.op_class::SimdFloatMult                 0      0.00%     77.41% # Class of executed instruction
system.cpu0.op_class::SimdFloatMultAcc              0      0.00%     77.41% # Class of executed instruction
system.cpu0.op_class::SimdFloatSqrt                 0      0.00%     77.41% # Class of executed instruction
system.cpu0.op_class::MemRead                  899090     14.57%     91.98% # Class of executed instruction
system.cpu0.op_class::MemWrite                 495130      8.02%    100.00% # Class of executed instruction
system.cpu0.op_class::IprAccess                     0      0.00%    100.00% # Class of executed instruction
system.cpu0.op_class::InstPrefetch                  0      0.00%    100.00% # Class of executed instruction
system.cpu0.op_class::total                   6171305                       # Class of executed instruction
system.cpu1.apic_clk_domain.clock                8000                       # Clock period in ticks
system.cpu1.numCycles                      2399467025                       # number of cpu cycles simulated
system.cpu1.numWorkItemsStarted                     0                       # number of work items this cpu started
system.cpu1.numWorkItemsCompleted                   0                       # number of work items this cpu completed
system.cpu1.kern.inst.arm                           0                       # number of arm instructions executed
system.cpu1.kern.inst.quiesce                       0                       # number of quiesce instructions executed
system.cpu1.committedInsts                     881835                       # Number of instructions committed
system.cpu1.committedOps                      1881605                       # Number of ops (including micro ops) committed
system.cpu1.num_int_alu_accesses              1838986                       # Number of integer alu accesses
system.cpu1.num_fp_alu_accesses                    39                       # Number of float alu accesses
system.cpu1.num_func_calls                      51960                       # number of times a function call or return occured
system.cpu1.num_conditional_control_insts       131925                       # number of instructions that are conditional controls
system.cpu1.num_int_insts                     1838986                       # number of integer instructions
system.cpu1.num_fp_insts                           39                       # number of float instructions
system.cpu1.num_int_register_reads            3739854                       # number of times the integer registers were read
system.cpu1.num_int_register_writes           1518666                       # number of times the integer registers were written
system.cpu1.num_fp_register_reads                  63                       # number of times the floating registers were read
system.cpu1.num_fp_register_writes                 31                       # number of times the floating registers were written
system.cpu1.num_cc_register_reads             1028158                       # number of times the CC registers were read
system.cpu1.num_cc_register_writes             553067                       # number of times the CC registers were written
system.cpu1.num_mem_refs                       452422                       # number of memory refs
system.cpu1.num_load_insts                     282659                       # Number of load instructions
system.cpu1.num_store_insts                    169763                       # Number of store instructions
system.cpu1.num_idle_cycles              2395530325.110619                       # Number of idle cycles
system.cpu1.num_busy_cycles              3936699.889381                       # Number of busy cycles
system.cpu1.not_idle_fraction                0.001641                       # Percentage of non-idle cycles
system.cpu1.idle_fraction                    0.998359                       # Percentage of idle cycles
system.cpu1.Branches                           200670                       # Number of branches fetched
system.cpu1.op_class::No_OpClass                30696      1.63%      1.63% # Class of executed instruction
system.cpu1.op_class::IntAlu                  1383602     73.53%     75.16% # Class of executed instruction
system.cpu1.op_class::IntMult                    4525      0.24%     75.40% # Class of executed instruction
system.cpu1.op_class::IntDiv                    10352      0.55%     75.95% # Class of executed instruction
system.cpu1.op_class::FloatAdd                     30      0.00%     75.96% # Class of executed instruction
system.cpu1.op_class::FloatCmp                      0      0.00%     75.96% # Class of executed instruction
system.cpu1.op_class::FloatCvt                      0      0.00%     75.96% # Class of executed instruction
system.cpu1.op_class::FloatMult                     0      0.00%     75.96% # Class of executed instruction
system.cpu1.op_class::FloatDiv                      0      0.00%     75.96% # Class of executed instruction
system.cpu1.op_class::FloatSqrt                     0      0.00%     75.96% # Class of executed instruction
system.cpu1.op_class::SimdAdd                       0      0.00%     75.96% # Class of executed instruction
system.cpu1.op_class::SimdAddAcc                    0      0.00%     75.96% # Class of executed instruction
system.cpu1.op_class::SimdAlu                       0      0.00%     75.96% # Class of executed instruction
system.cpu1.op_class::SimdCmp                       0      0.00%     75.96% # Class of executed instruction
system.cpu1.op_class::SimdCvt                       0      0.00%     75.96% # Class of executed instruction
system.cpu1.op_class::SimdMisc                      0      0.00%     75.96% # Class of executed instruction
system.cpu1.op_class::SimdMult                      0      0.00%     75.96% # Class of executed instruction
system.cpu1.op_class::SimdMultAcc                   0      0.00%     75.96% # Class of executed instruction
system.cpu1.op_class::SimdShift                     0      0.00%     75.96% # Class of executed instruction
system.cpu1.op_class::SimdShiftAcc                  0      0.00%     75.96% # Class of executed instruction
system.cpu1.op_class::SimdSqrt                      0      0.00%     75.96% # Class of executed instruction
system.cpu1.op_class::SimdFloatAdd                  0      0.00%     75.96% # Class of executed instruction
system.cpu1.op_class::SimdFloatAlu                  0      0.00%     75.96% # Class of executed instruction
system.cpu1.op_class::SimdFloatCmp                  0      0.00%     75.96% # Class of executed instruction
system.cpu1.op_class::SimdFloatCvt                  0      0.00%     75.96% # Class of executed instruction
system.cpu1.op_class::SimdFloatDiv                  0      0.00%     75.96% # Class of executed instruction
system.cpu1.op_class::SimdFloatMisc                 0      0.00%     75.96% # Class of executed instruction
system.cpu1.op_class::SimdFloatMult                 0      0.00%     75.96% # Class of executed instruction
system.cpu1.op_class::SimdFloatMultAcc              0      0.00%     75.96% # Class of executed instruction
system.cpu1.op_class::SimdFloatSqrt                 0      0.00%     75.96% # Class of executed instruction
system.cpu1.op_class::MemRead                  282659     15.02%     90.98% # Class of executed instruction
system.cpu1.op_class::MemWrite                 169763      9.02%    100.00% # Class of executed instruction
system.cpu1.op_class::IprAccess                     0      0.00%    100.00% # Class of executed instruction
system.cpu1.op_class::InstPrefetch                  0      0.00%    100.00% # Class of executed instruction
system.cpu1.op_class::total                   1881627                       # Class of executed instruction
system.cpu2.apic_clk_domain.clock                8000                       # Clock period in ticks
system.cpu2.numCycles                      2397060066                       # number of cpu cycles simulated
system.cpu2.numWorkItemsStarted                     0                       # number of work items this cpu started
system.cpu2.numWorkItemsCompleted                   0                       # number of work items this cpu completed
system.cpu2.kern.inst.arm                           0                       # number of arm instructions executed
system.cpu2.kern.inst.quiesce                       0                       # number of quiesce instructions executed
system.cpu2.committedInsts                  533859404                       # Number of instructions committed
system.cpu2.committedOps                    709190799                       # Number of ops (including micro ops) committed
system.cpu2.num_int_alu_accesses            508813429                       # Number of integer alu accesses
system.cpu2.num_fp_alu_accesses             331101068                       # Number of float alu accesses
system.cpu2.num_func_calls                     433219                       # number of times a function call or return occured
system.cpu2.num_conditional_control_insts     31467916                       # number of instructions that are conditional controls
system.cpu2.num_int_insts                   508813429                       # number of integer instructions
system.cpu2.num_fp_insts                    331101068                       # number of float instructions
system.cpu2.num_int_register_reads         1070131868                       # number of times the integer registers were read
system.cpu2.num_int_register_writes         339851476                       # number of times the integer registers were written
system.cpu2.num_fp_register_reads           564014582                       # number of times the floating registers were read
system.cpu2.num_fp_register_writes          276695748                       # number of times the floating registers were written
system.cpu2.num_cc_register_reads           220294820                       # number of times the CC registers were read
system.cpu2.num_cc_register_writes          241363961                       # number of times the CC registers were written
system.cpu2.num_mem_refs                    152840843                       # number of memory refs
system.cpu2.num_load_insts                   94763862                       # Number of load instructions
system.cpu2.num_store_insts                  58076981                       # Number of store instructions
system.cpu2.num_idle_cycles              9457335.375875                       # Number of idle cycles
system.cpu2.num_busy_cycles              2387602730.624125                       # Number of busy cycles
system.cpu2.not_idle_fraction                0.996055                       # Percentage of non-idle cycles
system.cpu2.idle_fraction                    0.003945                       # Percentage of idle cycles
system.cpu2.Branches                         33880426                       # Number of branches fetched
system.cpu2.op_class::No_OpClass               955278      0.13%      0.13% # Class of executed instruction
system.cpu2.op_class::IntAlu                444083515     62.62%     62.75% # Class of executed instruction
system.cpu2.op_class::IntMult                   24562      0.00%     62.76% # Class of executed instruction
system.cpu2.op_class::IntDiv                   145171      0.02%     62.78% # Class of executed instruction
system.cpu2.op_class::FloatAdd              111149730     15.67%     78.45% # Class of executed instruction
system.cpu2.op_class::FloatCmp                      0      0.00%     78.45% # Class of executed instruction
system.cpu2.op_class::FloatCvt                      0      0.00%     78.45% # Class of executed instruction
system.cpu2.op_class::FloatMult                     0      0.00%     78.45% # Class of executed instruction
system.cpu2.op_class::FloatDiv                      0      0.00%     78.45% # Class of executed instruction
system.cpu2.op_class::FloatSqrt                     0      0.00%     78.45% # Class of executed instruction
system.cpu2.op_class::SimdAdd                       0      0.00%     78.45% # Class of executed instruction
system.cpu2.op_class::SimdAddAcc                    0      0.00%     78.45% # Class of executed instruction
system.cpu2.op_class::SimdAlu                       0      0.00%     78.45% # Class of executed instruction
system.cpu2.op_class::SimdCmp                       0      0.00%     78.45% # Class of executed instruction
system.cpu2.op_class::SimdCvt                       0      0.00%     78.45% # Class of executed instruction
system.cpu2.op_class::SimdMisc                      0      0.00%     78.45% # Class of executed instruction
system.cpu2.op_class::SimdMult                      0      0.00%     78.45% # Class of executed instruction
system.cpu2.op_class::SimdMultAcc                   0      0.00%     78.45% # Class of executed instruction
system.cpu2.op_class::SimdShift                     0      0.00%     78.45% # Class of executed instruction
system.cpu2.op_class::SimdShiftAcc                  0      0.00%     78.45% # Class of executed instruction
system.cpu2.op_class::SimdSqrt                      0      0.00%     78.45% # Class of executed instruction
system.cpu2.op_class::SimdFloatAdd                  0      0.00%     78.45% # Class of executed instruction
system.cpu2.op_class::SimdFloatAlu                  0      0.00%     78.45% # Class of executed instruction
system.cpu2.op_class::SimdFloatCmp                  0      0.00%     78.45% # Class of executed instruction
system.cpu2.op_class::SimdFloatCvt                  0      0.00%     78.45% # Class of executed instruction
system.cpu2.op_class::SimdFloatDiv                  0      0.00%     78.45% # Class of executed instruction
system.cpu2.op_class::SimdFloatMisc                 0      0.00%     78.45% # Class of executed instruction
system.cpu2.op_class::SimdFloatMult                 0      0.00%     78.45% # Class of executed instruction
system.cpu2.op_class::SimdFloatMultAcc              0      0.00%     78.45% # Class of executed instruction
system.cpu2.op_class::SimdFloatSqrt                 0      0.00%     78.45% # Class of executed instruction
system.cpu2.op_class::MemRead                94763862     13.36%     91.81% # Class of executed instruction
system.cpu2.op_class::MemWrite               58076981      8.19%    100.00% # Class of executed instruction
system.cpu2.op_class::IprAccess                     0      0.00%    100.00% # Class of executed instruction
system.cpu2.op_class::InstPrefetch                  0      0.00%    100.00% # Class of executed instruction
system.cpu2.op_class::total                 709199099                       # Class of executed instruction
system.cpu3.apic_clk_domain.clock                8000                       # Clock period in ticks
system.cpu3.numCycles                      2390690893                       # number of cpu cycles simulated
system.cpu3.numWorkItemsStarted                     0                       # number of work items this cpu started
system.cpu3.numWorkItemsCompleted                   0                       # number of work items this cpu completed
system.cpu3.kern.inst.arm                           0                       # number of arm instructions executed
system.cpu3.kern.inst.quiesce                       0                       # number of quiesce instructions executed
system.cpu3.committedInsts                     784953                       # Number of instructions committed
system.cpu3.committedOps                      1697784                       # Number of ops (including micro ops) committed
system.cpu3.num_int_alu_accesses              1661731                       # Number of integer alu accesses
system.cpu3.num_fp_alu_accesses                     0                       # Number of float alu accesses
system.cpu3.num_func_calls                      47678                       # number of times a function call or return occured
system.cpu3.num_conditional_control_insts       116910                       # number of instructions that are conditional controls
system.cpu3.num_int_insts                     1661731                       # number of integer instructions
system.cpu3.num_fp_insts                            0                       # number of float instructions
system.cpu3.num_int_register_reads            3375117                       # number of times the integer registers were read
system.cpu3.num_int_register_writes           1377520                       # number of times the integer registers were written
system.cpu3.num_fp_register_reads                   0                       # number of times the floating registers were read
system.cpu3.num_fp_register_writes                  0                       # number of times the floating registers were written
system.cpu3.num_cc_register_reads              937125                       # number of times the CC registers were read
system.cpu3.num_cc_register_writes             498838                       # number of times the CC registers were written
system.cpu3.num_mem_refs                       407273                       # number of memory refs
system.cpu3.num_load_insts                     253563                       # Number of load instructions
system.cpu3.num_store_insts                    153710                       # Number of store instructions
system.cpu3.num_idle_cycles              2387207691.672652                       # Number of idle cycles
system.cpu3.num_busy_cycles              3483201.327348                       # Number of busy cycles
system.cpu3.not_idle_fraction                0.001457                       # Percentage of non-idle cycles
system.cpu3.idle_fraction                    0.998543                       # Percentage of idle cycles
system.cpu3.Branches                           179976                       # Number of branches fetched
system.cpu3.op_class::No_OpClass                30226      1.78%      1.78% # Class of executed instruction
system.cpu3.op_class::IntAlu                  1246016     73.39%     75.17% # Class of executed instruction
system.cpu3.op_class::IntMult                    3534      0.21%     75.38% # Class of executed instruction
system.cpu3.op_class::IntDiv                    10738      0.63%     76.01% # Class of executed instruction
system.cpu3.op_class::FloatAdd                      0      0.00%     76.01% # Class of executed instruction
system.cpu3.op_class::FloatCmp                      0      0.00%     76.01% # Class of executed instruction
system.cpu3.op_class::FloatCvt                      0      0.00%     76.01% # Class of executed instruction
system.cpu3.op_class::FloatMult                     0      0.00%     76.01% # Class of executed instruction
system.cpu3.op_class::FloatDiv                      0      0.00%     76.01% # Class of executed instruction
system.cpu3.op_class::FloatSqrt                     0      0.00%     76.01% # Class of executed instruction
system.cpu3.op_class::SimdAdd                       0      0.00%     76.01% # Class of executed instruction
system.cpu3.op_class::SimdAddAcc                    0      0.00%     76.01% # Class of executed instruction
system.cpu3.op_class::SimdAlu                       0      0.00%     76.01% # Class of executed instruction
system.cpu3.op_class::SimdCmp                       0      0.00%     76.01% # Class of executed instruction
system.cpu3.op_class::SimdCvt                       0      0.00%     76.01% # Class of executed instruction
system.cpu3.op_class::SimdMisc                      0      0.00%     76.01% # Class of executed instruction
system.cpu3.op_class::SimdMult                      0      0.00%     76.01% # Class of executed instruction
system.cpu3.op_class::SimdMultAcc                   0      0.00%     76.01% # Class of executed instruction
system.cpu3.op_class::SimdShift                     0      0.00%     76.01% # Class of executed instruction
system.cpu3.op_class::SimdShiftAcc                  0      0.00%     76.01% # Class of executed instruction
system.cpu3.op_class::SimdSqrt                      0      0.00%     76.01% # Class of executed instruction
system.cpu3.op_class::SimdFloatAdd                  0      0.00%     76.01% # Class of executed instruction
system.cpu3.op_class::SimdFloatAlu                  0      0.00%     76.01% # Class of executed instruction
system.cpu3.op_class::SimdFloatCmp                  0      0.00%     76.01% # Class of executed instruction
system.cpu3.op_class::SimdFloatCvt                  0      0.00%     76.01% # Class of executed instruction
system.cpu3.op_class::SimdFloatDiv                  0      0.00%     76.01% # Class of executed instruction
system.cpu3.op_class::SimdFloatMisc                 0      0.00%     76.01% # Class of executed instruction
system.cpu3.op_class::SimdFloatMult                 0      0.00%     76.01% # Class of executed instruction
system.cpu3.op_class::SimdFloatMultAcc              0      0.00%     76.01% # Class of executed instruction
system.cpu3.op_class::SimdFloatSqrt                 0      0.00%     76.01% # Class of executed instruction
system.cpu3.op_class::MemRead                  253563     14.93%     90.95% # Class of executed instruction
system.cpu3.op_class::MemWrite                 153710      9.05%    100.00% # Class of executed instruction
system.cpu3.op_class::IprAccess                     0      0.00%    100.00% # Class of executed instruction
system.cpu3.op_class::InstPrefetch                  0      0.00%    100.00% # Class of executed instruction
system.cpu3.op_class::total                   1697787                       # Class of executed instruction
system.iobus.trans_dist::ReadReq                  713                       # Transaction distribution
system.iobus.trans_dist::ReadResp                 713                       # Transaction distribution
system.iobus.trans_dist::WriteReq                1471                       # Transaction distribution
system.iobus.trans_dist::WriteResp               1471                       # Transaction distribution
system.iobus.trans_dist::MessageReq                13                       # Transaction distribution
system.iobus.trans_dist::MessageResp               13                       # Transaction distribution
system.iobus.pkt_count_system.pc.south_bridge.io_apic.int_master::system.ruby.l1_cntrl0.sequencer.pio-slave-port            2                       # Packet count per connected master and slave (bytes)
system.iobus.pkt_count_system.pc.south_bridge.io_apic.int_master::system.ruby.l1_cntrl1.sequencer.pio-slave-port            4                       # Packet count per connected master and slave (bytes)
system.iobus.pkt_count_system.pc.south_bridge.io_apic.int_master::system.ruby.l1_cntrl2.sequencer.pio-slave-port            2                       # Packet count per connected master and slave (bytes)
system.iobus.pkt_count_system.pc.south_bridge.io_apic.int_master::system.ruby.l1_cntrl3.sequencer.pio-slave-port            2                       # Packet count per connected master and slave (bytes)
system.iobus.pkt_count_system.pc.south_bridge.io_apic.int_master::total           10                       # Packet count per connected master and slave (bytes)
system.iobus.pkt_count_system.ruby.l1_cntrl0.sequencer.mem-master-port::system.pc.south_bridge.io_apic.pio            6                       # Packet count per connected master and slave (bytes)
system.iobus.pkt_count_system.ruby.l1_cntrl0.sequencer.mem-master-port::system.pc.com_1.pio         1734                       # Packet count per connected master and slave (bytes)
system.iobus.pkt_count_system.ruby.l1_cntrl0.sequencer.mem-master-port::system.ruby.l1_cntrl0.sequencer.pio-slave-port          620                       # Packet count per connected master and slave (bytes)
system.iobus.pkt_count_system.ruby.l1_cntrl0.sequencer.mem-master-port::system.ruby.l1_cntrl1.sequencer.pio-slave-port            2                       # Packet count per connected master and slave (bytes)
system.iobus.pkt_count_system.ruby.l1_cntrl0.sequencer.mem-master-port::system.ruby.l1_cntrl2.sequencer.pio-slave-port            2                       # Packet count per connected master and slave (bytes)
system.iobus.pkt_count_system.ruby.l1_cntrl0.sequencer.mem-master-port::system.ruby.l1_cntrl3.sequencer.pio-slave-port            2                       # Packet count per connected master and slave (bytes)
system.iobus.pkt_count_system.ruby.l1_cntrl0.sequencer.mem-master-port::total         2366                       # Packet count per connected master and slave (bytes)
system.iobus.pkt_count_system.ruby.l1_cntrl1.sequencer.mem-master-port::system.pc.south_bridge.io_apic.pio           14                       # Packet count per connected master and slave (bytes)
system.iobus.pkt_count_system.ruby.l1_cntrl1.sequencer.mem-master-port::system.pc.com_1.pio          130                       # Packet count per connected master and slave (bytes)
system.iobus.pkt_count_system.ruby.l1_cntrl1.sequencer.mem-master-port::system.ruby.l1_cntrl1.sequencer.pio-slave-port          616                       # Packet count per connected master and slave (bytes)
system.iobus.pkt_count_system.ruby.l1_cntrl1.sequencer.mem-master-port::system.ruby.l1_cntrl2.sequencer.pio-slave-port            2                       # Packet count per connected master and slave (bytes)
system.iobus.pkt_count_system.ruby.l1_cntrl1.sequencer.mem-master-port::total          762                       # Packet count per connected master and slave (bytes)
system.iobus.pkt_count_system.ruby.l1_cntrl2.sequencer.mem-master-port::system.pc.south_bridge.io_apic.pio            8                       # Packet count per connected master and slave (bytes)
system.iobus.pkt_count_system.ruby.l1_cntrl2.sequencer.mem-master-port::system.ruby.l1_cntrl1.sequencer.pio-slave-port            4                       # Packet count per connected master and slave (bytes)
system.iobus.pkt_count_system.ruby.l1_cntrl2.sequencer.mem-master-port::system.ruby.l1_cntrl2.sequencer.pio-slave-port          622                       # Packet count per connected master and slave (bytes)
system.iobus.pkt_count_system.ruby.l1_cntrl2.sequencer.mem-master-port::system.ruby.l1_cntrl3.sequencer.pio-slave-port            2                       # Packet count per connected master and slave (bytes)
system.iobus.pkt_count_system.ruby.l1_cntrl2.sequencer.mem-master-port::total          636                       # Packet count per connected master and slave (bytes)
system.iobus.pkt_count_system.ruby.l1_cntrl3.sequencer.mem-master-port::system.pc.south_bridge.io_apic.pio            8                       # Packet count per connected master and slave (bytes)
system.iobus.pkt_count_system.ruby.l1_cntrl3.sequencer.mem-master-port::system.ruby.l1_cntrl0.sequencer.pio-slave-port            2                       # Packet count per connected master and slave (bytes)
system.iobus.pkt_count_system.ruby.l1_cntrl3.sequencer.mem-master-port::system.ruby.l1_cntrl3.sequencer.pio-slave-port          610                       # Packet count per connected master and slave (bytes)
system.iobus.pkt_count_system.ruby.l1_cntrl3.sequencer.mem-master-port::total          620                       # Packet count per connected master and slave (bytes)
system.iobus.pkt_count::total                    4394                       # Packet count per connected master and slave (bytes)
system.iobus.pkt_size_system.pc.south_bridge.io_apic.int_master::system.ruby.l1_cntrl0.sequencer.pio-slave-port            4                       # Cumulative packet size per connected master and slave (bytes)
system.iobus.pkt_size_system.pc.south_bridge.io_apic.int_master::system.ruby.l1_cntrl1.sequencer.pio-slave-port            8                       # Cumulative packet size per connected master and slave (bytes)
system.iobus.pkt_size_system.pc.south_bridge.io_apic.int_master::system.ruby.l1_cntrl2.sequencer.pio-slave-port            4                       # Cumulative packet size per connected master and slave (bytes)
system.iobus.pkt_size_system.pc.south_bridge.io_apic.int_master::system.ruby.l1_cntrl3.sequencer.pio-slave-port            4                       # Cumulative packet size per connected master and slave (bytes)
system.iobus.pkt_size_system.pc.south_bridge.io_apic.int_master::total           20                       # Cumulative packet size per connected master and slave (bytes)
system.iobus.pkt_size_system.ruby.l1_cntrl0.sequencer.mem-master-port::system.pc.south_bridge.io_apic.pio           12                       # Cumulative packet size per connected master and slave (bytes)
system.iobus.pkt_size_system.ruby.l1_cntrl0.sequencer.mem-master-port::system.pc.com_1.pio          867                       # Cumulative packet size per connected master and slave (bytes)
system.iobus.pkt_size_system.ruby.l1_cntrl0.sequencer.mem-master-port::system.ruby.l1_cntrl0.sequencer.pio-slave-port         1240                       # Cumulative packet size per connected master and slave (bytes)
system.iobus.pkt_size_system.ruby.l1_cntrl0.sequencer.mem-master-port::system.ruby.l1_cntrl1.sequencer.pio-slave-port            4                       # Cumulative packet size per connected master and slave (bytes)
system.iobus.pkt_size_system.ruby.l1_cntrl0.sequencer.mem-master-port::system.ruby.l1_cntrl2.sequencer.pio-slave-port            4                       # Cumulative packet size per connected master and slave (bytes)
system.iobus.pkt_size_system.ruby.l1_cntrl0.sequencer.mem-master-port::system.ruby.l1_cntrl3.sequencer.pio-slave-port            4                       # Cumulative packet size per connected master and slave (bytes)
system.iobus.pkt_size_system.ruby.l1_cntrl0.sequencer.mem-master-port::total         2131                       # Cumulative packet size per connected master and slave (bytes)
system.iobus.pkt_size_system.ruby.l1_cntrl1.sequencer.mem-master-port::system.pc.south_bridge.io_apic.pio           28                       # Cumulative packet size per connected master and slave (bytes)
system.iobus.pkt_size_system.ruby.l1_cntrl1.sequencer.mem-master-port::system.pc.com_1.pio           65                       # Cumulative packet size per connected master and slave (bytes)
system.iobus.pkt_size_system.ruby.l1_cntrl1.sequencer.mem-master-port::system.ruby.l1_cntrl1.sequencer.pio-slave-port         1232                       # Cumulative packet size per connected master and slave (bytes)
system.iobus.pkt_size_system.ruby.l1_cntrl1.sequencer.mem-master-port::system.ruby.l1_cntrl2.sequencer.pio-slave-port            4                       # Cumulative packet size per connected master and slave (bytes)
system.iobus.pkt_size_system.ruby.l1_cntrl1.sequencer.mem-master-port::total         1329                       # Cumulative packet size per connected master and slave (bytes)
system.iobus.pkt_size_system.ruby.l1_cntrl2.sequencer.mem-master-port::system.pc.south_bridge.io_apic.pio           16                       # Cumulative packet size per connected master and slave (bytes)
system.iobus.pkt_size_system.ruby.l1_cntrl2.sequencer.mem-master-port::system.ruby.l1_cntrl1.sequencer.pio-slave-port            8                       # Cumulative packet size per connected master and slave (bytes)
system.iobus.pkt_size_system.ruby.l1_cntrl2.sequencer.mem-master-port::system.ruby.l1_cntrl2.sequencer.pio-slave-port         1244                       # Cumulative packet size per connected master and slave (bytes)
system.iobus.pkt_size_system.ruby.l1_cntrl2.sequencer.mem-master-port::system.ruby.l1_cntrl3.sequencer.pio-slave-port            4                       # Cumulative packet size per connected master and slave (bytes)
system.iobus.pkt_size_system.ruby.l1_cntrl2.sequencer.mem-master-port::total         1272                       # Cumulative packet size per connected master and slave (bytes)
system.iobus.pkt_size_system.ruby.l1_cntrl3.sequencer.mem-master-port::system.pc.south_bridge.io_apic.pio           16                       # Cumulative packet size per connected master and slave (bytes)
system.iobus.pkt_size_system.ruby.l1_cntrl3.sequencer.mem-master-port::system.ruby.l1_cntrl0.sequencer.pio-slave-port            4                       # Cumulative packet size per connected master and slave (bytes)
system.iobus.pkt_size_system.ruby.l1_cntrl3.sequencer.mem-master-port::system.ruby.l1_cntrl3.sequencer.pio-slave-port         1220                       # Cumulative packet size per connected master and slave (bytes)
system.iobus.pkt_size_system.ruby.l1_cntrl3.sequencer.mem-master-port::total         1240                       # Cumulative packet size per connected master and slave (bytes)
system.iobus.pkt_size::total                     5992                       # Cumulative packet size per connected master and slave (bytes)
system.iobus.reqLayer8.occupancy                33496                       # Layer occupancy (ticks)
system.iobus.reqLayer8.utilization                0.0                       # Layer utilization (%)
system.iobus.reqLayer12.occupancy             1204500                       # Layer occupancy (ticks)
system.iobus.reqLayer12.utilization               0.0                       # Layer utilization (%)
system.iobus.reqLayer17.occupancy              764998                       # Layer occupancy (ticks)
system.iobus.reqLayer17.utilization               0.0                       # Layer utilization (%)
system.iobus.reqLayer18.occupancy              773500                       # Layer occupancy (ticks)
system.iobus.reqLayer18.utilization               0.0                       # Layer utilization (%)
system.iobus.reqLayer19.occupancy              813790                       # Layer occupancy (ticks)
system.iobus.reqLayer19.utilization               0.0                       # Layer utilization (%)
system.iobus.reqLayer20.occupancy              765000                       # Layer occupancy (ticks)
system.iobus.reqLayer20.utilization               0.0                       # Layer utilization (%)
system.iobus.respLayer0.occupancy                7000                       # Layer occupancy (ticks)
system.iobus.respLayer0.utilization               0.0                       # Layer utilization (%)
system.iobus.respLayer2.occupancy             1992000                       # Layer occupancy (ticks)
system.iobus.respLayer2.utilization               0.0                       # Layer utilization (%)
system.iobus.respLayer4.occupancy              586000                       # Layer occupancy (ticks)
system.iobus.respLayer4.utilization               0.0                       # Layer utilization (%)
system.iobus.respLayer6.occupancy              479000                       # Layer occupancy (ticks)
system.iobus.respLayer6.utilization               0.0                       # Layer utilization (%)
system.iobus.respLayer8.occupancy              465500                       # Layer occupancy (ticks)
system.iobus.respLayer8.utilization               0.0                       # Layer utilization (%)
system.pc.south_bridge.ide.disks.dma_read_full_pages            0                       # Number of full page size DMA reads (not PRD).
system.pc.south_bridge.ide.disks.dma_read_bytes            0                       # Number of bytes transfered via DMA reads (not PRD).
system.pc.south_bridge.ide.disks.dma_read_txs            0                       # Number of DMA read transactions (not PRD).
system.pc.south_bridge.ide.disks.dma_write_full_pages            0                       # Number of full page size DMA writes.
system.pc.south_bridge.ide.disks.dma_write_bytes            0                       # Number of bytes transfered via DMA writes.
system.pc.south_bridge.ide.disks.dma_write_txs            0                       # Number of DMA write transactions.
system.ruby.clk_domain.clock                      500                       # Clock period in ticks
system.ruby.outstanding_req_hist_seqr::bucket_size            1                      
system.ruby.outstanding_req_hist_seqr::max_bucket            9                      
system.ruby.outstanding_req_hist_seqr::samples    936332712                      
system.ruby.outstanding_req_hist_seqr::mean     1.000000                      
system.ruby.outstanding_req_hist_seqr::gmean     1.000000                      
system.ruby.outstanding_req_hist_seqr::stdev     0.000512                      
system.ruby.outstanding_req_hist_seqr    |           0      0.00%      0.00% |   936332467    100.00%    100.00% |         245      0.00%    100.00% |           0      0.00%    100.00% |           0      0.00%    100.00% |           0      0.00%    100.00% |           0      0.00%    100.00% |           0      0.00%    100.00% |           0      0.00%    100.00% |           0      0.00%    100.00%
system.ruby.outstanding_req_hist_seqr::total    936332712                      
system.ruby.latency_hist_seqr::bucket_size          256                      
system.ruby.latency_hist_seqr::max_bucket         2559                      
system.ruby.latency_hist_seqr::samples      936332712                      
system.ruby.latency_hist_seqr::mean          1.569733                      
system.ruby.latency_hist_seqr::gmean         1.030694                      
system.ruby.latency_hist_seqr::stdev         9.696272                      
system.ruby.latency_hist_seqr            |   936223014     99.99%     99.99% |       56754      0.01%     99.99% |       47121      0.01%    100.00% |        4169      0.00%    100.00% |        1258      0.00%    100.00% |         292      0.00%    100.00% |          99      0.00%    100.00% |           5      0.00%    100.00% |           0      0.00%    100.00% |           0      0.00%    100.00%
system.ruby.latency_hist_seqr::total        936332712                      
system.ruby.hit_latency_hist_seqr::bucket_size            1                      
system.ruby.hit_latency_hist_seqr::max_bucket            9                      
system.ruby.hit_latency_hist_seqr::samples    928731043                      
system.ruby.hit_latency_hist_seqr::mean             1                      
system.ruby.hit_latency_hist_seqr::gmean            1                      
[...]
system.ruby.L1Cache_Controller.O.Load::total         8305                      
system.ruby.L1Cache_Controller.O.Store   |          77     23.55%     23.55% |          56     17.13%     40.67% |          71     21.71%     62.39% |         123     37.61%    100.00%
system.ruby.L1Cache_Controller.O.Store::total          327                      
system.ruby.L1Cache_Controller.O.L1_Replacement |         106     15.99%     15.99% |         244     36.80%     52.79% |         235     35.44%     88.24% |          78     11.76%    100.00%
system.ruby.L1Cache_Controller.O.L1_Replacement::total          663                      
system.ruby.L1Cache_Controller.O.Fwd_GETX |        1950     30.98%     30.98% |        1269     20.16%     51.14% |         128      2.03%     53.17% |        2948     46.83%    100.00%
system.ruby.L1Cache_Controller.O.Fwd_GETX::total         6295                      
system.ruby.L1Cache_Controller.O.Fwd_GETS |        2578     39.56%     39.56% |         631      9.68%     49.25% |         155      2.38%     51.63% |        3152     48.37%    100.00%
system.ruby.L1Cache_Controller.O.Fwd_GETS::total         6516                      
system.ruby.L1Cache_Controller.M.Load    |      142204      5.64%      5.64% |       21463      0.85%      6.49% |     2315585     91.88%     98.37% |       41076      1.63%    100.00%
system.ruby.L1Cache_Controller.M.Load::total      2520328                      
system.ruby.L1Cache_Controller.M.Store   |       41516     19.04%     19.04% |         660      0.30%     19.34% |      173974     79.77%     99.11% |        1944      0.89%    100.00%
system.ruby.L1Cache_Controller.M.Store::total       218094                      
system.ruby.L1Cache_Controller.M.L1_Replacement |       12499      1.23%      1.23% |        1225      0.12%      1.35% |      996590     98.38%     99.74% |        2661      0.26%    100.00%
system.ruby.L1Cache_Controller.M.L1_Replacement::total      1012975                      
system.ruby.L1Cache_Controller.M.Fwd_GETX |         270     30.10%     30.10% |          94     10.48%     40.58% |         139     15.50%     56.08% |         394     43.92%    100.00%
system.ruby.L1Cache_Controller.M.Fwd_GETX::total          897                      
system.ruby.L1Cache_Controller.M.Fwd_GETS |        2133     29.82%     29.82% |        1597     22.33%     52.15% |         257      3.59%     55.75% |        3165     44.25%    100.00%
system.ruby.L1Cache_Controller.M.Fwd_GETS::total         7152                      
system.ruby.L1Cache_Controller.M_W.Load  |       58431     11.46%     11.46% |        2124      0.42%     11.88% |      443102     86.93%     98.81% |        6058      1.19%    100.00%
system.ruby.L1Cache_Controller.M_W.Load::total       509715                      
system.ruby.L1Cache_Controller.M_W.Store |        4564     25.72%     25.72% |         355      2.00%     27.72% |       11436     64.44%     92.15% |        1393      7.85%    100.00%
system.ruby.L1Cache_Controller.M_W.Store::total        17748                      
system.ruby.L1Cache_Controller.M_W.Fwd_GETX |          62     48.82%     48.82% |           0      0.00%     48.82% |          60     47.24%     96.06% |           5      3.94%    100.00%
system.ruby.L1Cache_Controller.M_W.Fwd_GETX::total          127                      
system.ruby.L1Cache_Controller.M_W.Fwd_GETS |         190     34.67%     34.67% |          89     16.24%     50.91% |         171     31.20%     82.12% |          98     17.88%    100.00%
system.ruby.L1Cache_Controller.M_W.Fwd_GETS::total          548                      
system.ruby.L1Cache_Controller.M_W.Use_Timeout |       56415      4.55%      4.55% |        3621      0.29%      4.85% |     1170845     94.50%     99.34% |        8142      0.66%    100.00%
system.ruby.L1Cache_Controller.M_W.Use_Timeout::total      1239023                      
system.ruby.L1Cache_Controller.MM.Load   |     1856600      2.92%      2.92% |      251549      0.40%      3.31% |    60987598     95.84%     99.16% |      536428      0.84%    100.00%
system.ruby.L1Cache_Controller.MM.Load::total     63632175                      
system.ruby.L1Cache_Controller.MM.Store  |     1744208      3.38%      3.38% |      260656      0.51%      3.89% |    49013538     95.05%     98.94% |      546519      1.06%    100.00%
system.ruby.L1Cache_Controller.MM.Store::total     51564921                      
system.ruby.L1Cache_Controller.MM.L1_Replacement |       77845      1.81%      1.81% |        4998      0.12%      1.93% |     4190432     97.69%     99.63% |       16037      0.37%    100.00%
system.ruby.L1Cache_Controller.MM.L1_Replacement::total      4289312                      
system.ruby.L1Cache_Controller.MM.Fwd_GETX |         768     23.33%     23.33% |         718     21.81%     45.14% |        1192     36.21%     81.35% |         614     18.65%    100.00%
system.ruby.L1Cache_Controller.MM.Fwd_GETX::total         3292                      
system.ruby.L1Cache_Controller.MM.Fwd_GETS |        3795     38.16%     38.16% |        1795     18.05%     56.21% |        2119     21.31%     77.52% |        2235     22.48%    100.00%
system.ruby.L1Cache_Controller.MM.Fwd_GETS::total         9944                      
system.ruby.L1Cache_Controller.MM.Fwd_DMA |           0      0.00%      0.00% |           0      0.00%      0.00% |           2    100.00%    100.00% |           0      0.00%    100.00%
system.ruby.L1Cache_Controller.MM.Fwd_DMA::total            2                      
system.ruby.L1Cache_Controller.MM_W.Load |        6408      1.32%      1.32% |         550      0.11%      1.43% |      477161     98.20%     99.63% |        1802      0.37%    100.00%
system.ruby.L1Cache_Controller.MM_W.Load::total       485921                      
system.ruby.L1Cache_Controller.MM_W.Store |       91382      1.56%      1.56% |       31793      0.54%      2.11% |     5651482     96.63%     98.74% |       73872      1.26%    100.00%
system.ruby.L1Cache_Controller.MM_W.Store::total      5848529                      
system.ruby.L1Cache_Controller.MM_W.L1_Replacement |           0      0.00%      0.00% |           0      0.00%      0.00% |       14533    100.00%    100.00% |           0      0.00%    100.00%
system.ruby.L1Cache_Controller.MM_W.L1_Replacement::total        14533                      
system.ruby.L1Cache_Controller.MM_W.Fwd_GETX |          11     52.38%     52.38% |           2      9.52%     61.90% |           5     23.81%     85.71% |           3     14.29%    100.00%
system.ruby.L1Cache_Controller.MM_W.Fwd_GETX::total           21                      
system.ruby.L1Cache_Controller.MM_W.Fwd_GETS |         471     30.08%     30.08% |         417     26.63%     56.70% |         229     14.62%     71.33% |         449     28.67%    100.00%
system.ruby.L1Cache_Controller.MM_W.Fwd_GETS::total         1566                      
system.ruby.L1Cache_Controller.MM_W.Use_Timeout |       40869      1.00%      1.00% |        6929      0.17%      1.17% |     4019811     98.42%     99.59% |       16868      0.41%    100.00%
system.ruby.L1Cache_Controller.MM_W.Use_Timeout::total      4084477                      
system.ruby.L1Cache_Controller.IM.Ack    |        3519     38.37%     38.37% |        1426     15.55%     53.92% |        2564     27.96%     81.88% |        1662     18.12%    100.00%
system.ruby.L1Cache_Controller.IM.Ack::total         9171                      
system.ruby.L1Cache_Controller.IM.Exclusive_Data |       31685      0.90%      0.90% |        5513      0.16%      1.06% |     3463361     98.58%     99.64% |       12742      0.36%    100.00%
system.ruby.L1Cache_Controller.IM.Exclusive_Data::total      3513301                      
system.ruby.L1Cache_Controller.SM.Ack    |        3679     47.00%     47.00% |        1239     15.83%     62.83% |        1798     22.97%     85.79% |        1112     14.21%    100.00%
system.ruby.L1Cache_Controller.SM.Ack::total         7828                      
system.ruby.L1Cache_Controller.SM.Exclusive_Data |        4543      0.82%      0.82% |        1006      0.18%      1.00% |      544943     98.52%     99.53% |        2610      0.47%    100.00%
system.ruby.L1Cache_Controller.SM.Exclusive_Data::total       553102                      
system.ruby.L1Cache_Controller.OM.Own_GETX |          77     23.62%     23.62% |          55     16.87%     40.49% |          71     21.78%     62.27% |         123     37.73%    100.00%
system.ruby.L1Cache_Controller.OM.Own_GETX::total          326                      
system.ruby.L1Cache_Controller.OM.Fwd_GETX |           0      0.00%      0.00% |           1    100.00%    100.00% |           0      0.00%    100.00% |           0      0.00%    100.00%
system.ruby.L1Cache_Controller.OM.Fwd_GETX::total            1                      
system.ruby.L1Cache_Controller.OM.Ack    |         713     30.26%     30.26% |         167      7.09%     37.35% |         946     40.15%     77.50% |         530     22.50%    100.00%
system.ruby.L1Cache_Controller.OM.Ack::total         2356                      
system.ruby.L1Cache_Controller.OM.All_acks |       36305      0.89%      0.89% |        6574      0.16%      1.05% |     4008375     98.57%     99.62% |       15475      0.38%    100.00%
system.ruby.L1Cache_Controller.OM.All_acks::total      4066729                      
system.ruby.L1Cache_Controller.IS.Data   |       54363      2.18%      2.18% |       24738      0.99%      3.18% |     2370687     95.24%     98.42% |       39332      1.58%    100.00%
system.ruby.L1Cache_Controller.IS.Data::total      2489120                      
system.ruby.L1Cache_Controller.IS.Exclusive_Data |       60979      4.85%      4.85% |        3976      0.32%      5.17% |     1182281     94.07%     99.24% |        9535      0.76%    100.00%
system.ruby.L1Cache_Controller.IS.Exclusive_Data::total      1256771                      
system.ruby.L1Cache_Controller.SI.Load   |           3     30.00%     30.00% |           0      0.00%     30.00% |           3     30.00%     60.00% |           4     40.00%    100.00%
system.ruby.L1Cache_Controller.SI.Load::total           10                      
system.ruby.L1Cache_Controller.SI.Ifetch |           0      0.00%      0.00% |           0      0.00%      0.00% |           6    100.00%    100.00% |           0      0.00%    100.00%
system.ruby.L1Cache_Controller.SI.Ifetch::total            6                      
system.ruby.L1Cache_Controller.SI.Inv    |           0      0.00%      0.00% |           0      0.00%      0.00% |           0      0.00%      0.00% |           1    100.00%    100.00%
system.ruby.L1Cache_Controller.SI.Inv::total            1                      
system.ruby.L1Cache_Controller.SI.Writeback_Ack |       38013      4.55%      4.55% |       17786      2.13%      6.68% |      751228     89.99%     96.67% |       27768      3.33%    100.00%
system.ruby.L1Cache_Controller.SI.Writeback_Ack::total       834795                      
system.ruby.L1Cache_Controller.SI.Writeback_Ack_Data |       10437      0.96%      0.96% |        2396      0.22%      1.17% |     1072909     98.22%     99.39% |        6615      0.61%    100.00%
system.ruby.L1Cache_Controller.SI.Writeback_Ack_Data::total      1092357                      
system.ruby.L1Cache_Controller.OI.Writeback_Ack_Data |         106     15.99%     15.99% |         244     36.80%     52.79% |         235     35.44%     88.24% |          78     11.76%    100.00%
system.ruby.L1Cache_Controller.OI.Writeback_Ack_Data::total          663                      
system.ruby.L1Cache_Controller.MI.Load   |           2     66.67%     66.67% |           0      0.00%     66.67% |           1     33.33%    100.00% |           0      0.00%    100.00%
system.ruby.L1Cache_Controller.MI.Load::total            3                      
system.ruby.L1Cache_Controller.MI.Writeback_Ack_Data |       90344      1.70%      1.70% |        6223      0.12%      1.82% |     5187022     97.83%     99.65% |       18698      0.35%    100.00%
system.ruby.L1Cache_Controller.MI.Writeback_Ack_Data::total      5302287                      
system.ruby.L1Cache_Controller.II.Writeback_Nack |           0      0.00%      0.00% |           0      0.00%      0.00% |           0      0.00%      0.00% |           1    100.00%    100.00%
system.ruby.L1Cache_Controller.II.Writeback_Nack::total            1                      
system.ruby.L2Cache_Controller.L1_GETS        3746321      0.00%      0.00%
system.ruby.L2Cache_Controller.L1_GETX        4066740      0.00%      0.00%
system.ruby.L2Cache_Controller.L1_PUTO            663      0.00%      0.00%
system.ruby.L2Cache_Controller.L1_PUTX        5302287      0.00%      0.00%
system.ruby.L2Cache_Controller.L1_PUTS_only      1824530      0.00%      0.00%
system.ruby.L2Cache_Controller.L1_PUTS         102630      0.00%      0.00%
system.ruby.L2Cache_Controller.Fwd_DMA              2      0.00%      0.00%
system.ruby.L2Cache_Controller.All_Acks       1594048      0.00%      0.00%
system.ruby.L2Cache_Controller.Data           3226714      0.00%      0.00%
system.ruby.L2Cache_Controller.L1_WBCLEANDATA      1092357      0.00%      0.00%
system.ruby.L2Cache_Controller.L1_WBDIRTYDATA      5302950      0.00%      0.00%
system.ruby.L2Cache_Controller.Writeback_Ack      1589224      0.00%      0.00%
system.ruby.L2Cache_Controller.Unblock        3323915      0.00%      0.00%
system.ruby.L2Cache_Controller.Exclusive_Unblock      5323500      0.00%      0.00%
system.ruby.L2Cache_Controller.DmaAck               2      0.00%      0.00%
system.ruby.L2Cache_Controller.L2_Replacement      2672444      0.00%      0.00%
system.ruby.L2Cache_Controller.NP.L1_GETS      1632666      0.00%      0.00%
system.ruby.L2Cache_Controller.NP.L1_GETX      1042147      0.00%      0.00%
system.ruby.L2Cache_Controller.ILS.L1_GETS         4527      0.00%      0.00%
system.ruby.L2Cache_Controller.ILS.L1_GETX       546957      0.00%      0.00%
system.ruby.L2Cache_Controller.ILS.L1_PUTS_only      1086859      0.00%      0.00%
system.ruby.L2Cache_Controller.ILS.L1_PUTS         5498      0.00%      0.00%
system.ruby.L2Cache_Controller.ILX.L1_GETS        17096      0.00%      0.00%
system.ruby.L2Cache_Controller.ILX.L1_GETX         4189      0.00%      0.00%
system.ruby.L2Cache_Controller.ILX.L1_PUTX      5302287      0.00%      0.00%
system.ruby.L2Cache_Controller.ILX.L1_PUTS            1      0.00%      0.00%
system.ruby.L2Cache_Controller.ILX.Fwd_DMA            2      0.00%      0.00%
system.ruby.L2Cache_Controller.ILOX.L1_GETS          418      0.00%      0.00%
system.ruby.L2Cache_Controller.ILOX.L1_GETX           85      0.00%      0.00%
system.ruby.L2Cache_Controller.ILOX.L1_PUTO          290      0.00%      0.00%
system.ruby.L2Cache_Controller.ILOSX.L1_GETS         6098      0.00%      0.00%
system.ruby.L2Cache_Controller.ILOSX.L1_GETX         6537      0.00%      0.00%
system.ruby.L2Cache_Controller.ILOSX.L1_PUTO          373      0.00%      0.00%
system.ruby.L2Cache_Controller.ILOSX.L1_PUTS_only          810      0.00%      0.00%
system.ruby.L2Cache_Controller.ILOSX.L1_PUTS         1444      0.00%      0.00%
system.ruby.L2Cache_Controller.S.L1_GETS       740964      0.00%      0.00%
system.ruby.L2Cache_Controller.S.L1_GETX         2202      0.00%      0.00%
system.ruby.L2Cache_Controller.S.L2_Replacement      1076565      0.00%      0.00%
system.ruby.L2Cache_Controller.OLSX.L1_GETS          173      0.00%      0.00%
system.ruby.L2Cache_Controller.OLSX.L1_GETX          184      0.00%      0.00%
system.ruby.L2Cache_Controller.OLSX.L1_PUTS_only          108      0.00%      0.00%
system.ruby.L2Cache_Controller.OLSX.L1_PUTS          115      0.00%      0.00%
system.ruby.L2Cache_Controller.OLSX.L2_Replacement           75      0.00%      0.00%
system.ruby.L2Cache_Controller.SLS.L1_GETS        97122      0.00%      0.00%
system.ruby.L2Cache_Controller.SLS.L1_GETX         2742      0.00%      0.00%
system.ruby.L2Cache_Controller.SLS.L1_PUTS_only       736753      0.00%      0.00%
system.ruby.L2Cache_Controller.SLS.L1_PUTS        95565      0.00%      0.00%
system.ruby.L2Cache_Controller.SLS.L2_Replacement         6655      0.00%      0.00%
system.ruby.L2Cache_Controller.M.L1_GETS      1246827      0.00%      0.00%
system.ruby.L2Cache_Controller.M.L1_GETX      2461686      0.00%      0.00%
system.ruby.L2Cache_Controller.M.L2_Replacement      1589149      0.00%      0.00%
system.ruby.L2Cache_Controller.ILOXW.L1_WBDIRTYDATA          290      0.00%      0.00%
system.ruby.L2Cache_Controller.ILOXW.Unblock          810      0.00%      0.00%
system.ruby.L2Cache_Controller.ILOSXW.L1_WBDIRTYDATA          373      0.00%      0.00%
system.ruby.L2Cache_Controller.ILOSXW.Unblock         1444      0.00%      0.00%
system.ruby.L2Cache_Controller.SLSW.L1_PUTS            2      0.00%      0.00%
system.ruby.L2Cache_Controller.SLSW.Unblock        95565      0.00%      0.00%
system.ruby.L2Cache_Controller.ILSW.L1_WBCLEANDATA         5498      0.00%      0.00%
system.ruby.L2Cache_Controller.IW.L1_WBCLEANDATA      1086859      0.00%      0.00%
system.ruby.L2Cache_Controller.SW.Unblock       736753      0.00%      0.00%
system.ruby.L2Cache_Controller.OXW.Unblock          108      0.00%      0.00%
system.ruby.L2Cache_Controller.OLSXW.Unblock          115      0.00%      0.00%
system.ruby.L2Cache_Controller.ILXW.L1_WBDIRTYDATA      5302287      0.00%      0.00%
system.ruby.L2Cache_Controller.IFLS.Unblock         4527      0.00%      0.00%
system.ruby.L2Cache_Controller.IFLOX.Unblock          418      0.00%      0.00%
system.ruby.L2Cache_Controller.IFLOX.Exclusive_Unblock          184      0.00%      0.00%
system.ruby.L2Cache_Controller.IFLOXX.L1_GETS          227      0.00%      0.00%
system.ruby.L2Cache_Controller.IFLOXX.L1_GETX            9      0.00%      0.00%
system.ruby.L2Cache_Controller.IFLOXX.Unblock         7152      0.00%      0.00%
system.ruby.L2Cache_Controller.IFLOXX.Exclusive_Unblock        14218      0.00%      0.00%
system.ruby.L2Cache_Controller.IFLOSX.Unblock         6098      0.00%      0.00%
system.ruby.L2Cache_Controller.IFLXO.L1_GETS          155      0.00%      0.00%
system.ruby.L2Cache_Controller.IFLXO.L1_GETX            2      0.00%      0.00%
system.ruby.L2Cache_Controller.IFLXO.Exclusive_Unblock         6537      0.00%      0.00%
system.ruby.L2Cache_Controller.IGS.L1_GETS           43      0.00%      0.00%
system.ruby.L2Cache_Controller.IGS.Data       1632666      0.00%      0.00%
system.ruby.L2Cache_Controller.IGS.Unblock      1632666      0.00%      0.00%
system.ruby.L2Cache_Controller.IGM.Data       1044349      0.00%      0.00%
system.ruby.L2Cache_Controller.IGMLS.Data       549699      0.00%      0.00%
system.ruby.L2Cache_Controller.IGMO.L1_PUTS            3      0.00%      0.00%
system.ruby.L2Cache_Controller.IGMO.All_Acks      1594048      0.00%      0.00%
system.ruby.L2Cache_Controller.IGMO.Exclusive_Unblock      1594048      0.00%      0.00%
system.ruby.L2Cache_Controller.MM.Exclusive_Unblock      2461686      0.00%      0.00%
system.ruby.L2Cache_Controller.SS.Unblock       740964      0.00%      0.00%
system.ruby.L2Cache_Controller.OO.Exclusive_Unblock      1246827      0.00%      0.00%
system.ruby.L2Cache_Controller.OLSXS.Unblock          173      0.00%      0.00%
system.ruby.L2Cache_Controller.SLSS.L1_GETS            5      0.00%      0.00%
system.ruby.L2Cache_Controller.SLSS.L1_PUTS            2      0.00%      0.00%
system.ruby.L2Cache_Controller.SLSS.Unblock        97122      0.00%      0.00%
system.ruby.L2Cache_Controller.MI.Writeback_Ack      1589149      0.00%      0.00%
system.ruby.L2Cache_Controller.OLSI.Writeback_Ack           75      0.00%      0.00%
system.ruby.L2Cache_Controller.ILXD.DmaAck            2      0.00%      0.00%

---------- End Simulation Statistics   ----------
