
---------- Begin Simulation Statistics ----------
sim_seconds                                  2.419922                       # Number of seconds simulated
sim_ticks                                2419921535500                       # Number of ticks simulated
final_tick                               57369893650001                       # Number of ticks from beginning of simulation (restored from checkpoints and never reset)
sim_freq                                 1000000000000                       # Frequency of simulated ticks
host_inst_rate                                 136256                       # Simulator instruction rate (inst/s)
host_op_rate                                   246991                       # Simulator op (including micro ops) rate (op/s)
host_tick_rate                              251078606                       # Simulator tick rate (ticks/s)
host_mem_usage                                2237504                       # Number of bytes of host memory used
host_seconds                                  9638.10                       # Real time elapsed on the host
sim_insts                                  1313246152                       # Number of instructions simulated
sim_ops                                    2380520654                       # Number of ops (including micro ops) simulated
system.voltage_domain.voltage                       1                       # Voltage in Volts
system.clk_domain.clock                          1000                       # Clock period in ticks
system.mem_ctrls.bytes_read::ruby.dir_cntrl0     75321152                       # Number of bytes read from this memory
system.mem_ctrls.bytes_read::total           75321152                       # Number of bytes read from this memory
system.mem_ctrls.bytes_written::ruby.dir_cntrl0     33724288                       # Number of bytes written to this memory
system.mem_ctrls.bytes_written::total        33724288                       # Number of bytes written to this memory
system.mem_ctrls.num_reads::ruby.dir_cntrl0      2353786                       # Number of read requests responded to by this memory
system.mem_ctrls.num_reads::total             2353786                       # Number of read requests responded to by this memory
system.mem_ctrls.num_writes::ruby.dir_cntrl0      1053884                       # Number of write requests responded to by this memory
system.mem_ctrls.num_writes::total            1053884                       # Number of write requests responded to by this memory
system.mem_ctrls.bw_read::ruby.dir_cntrl0     31125452                       # Total read bandwidth from this memory (bytes/s)
system.mem_ctrls.bw_read::total              31125452                       # Total read bandwidth from this memory (bytes/s)
system.mem_ctrls.bw_write::ruby.dir_cntrl0     13936108                       # Write bandwidth from this memory (bytes/s)
system.mem_ctrls.bw_write::total             13936108                       # Write bandwidth from this memory (bytes/s)
system.mem_ctrls.bw_total::ruby.dir_cntrl0     45061560                       # Total bandwidth to/from this memory (bytes/s)
system.mem_ctrls.bw_total::total             45061560                       # Total bandwidth to/from this memory (bytes/s)
system.mem_ctrls.readReqs                     2353786                       # Number of read requests accepted
system.mem_ctrls.writeReqs                    1053884                       # Number of write requests accepted
system.mem_ctrls.readBursts                   2353786                       # Number of DRAM read bursts, including those serviced by the write queue
system.mem_ctrls.writeBursts                  1053884                       # Number of DRAM write bursts, including those merged in the write queue
system.mem_ctrls.bytesReadDRAM              150621824                       # Total number of bytes read from DRAM
system.mem_ctrls.bytesReadWrQ                   20480                       # Total number of bytes read from write queue
system.mem_ctrls.bytesWritten                66608960                       # Total number of bytes written to DRAM
system.mem_ctrls.bytesReadSys                75321152                       # Total read bytes from the system interface side
system.mem_ctrls.bytesWrittenSys             33724288                       # Total written bytes from the system interface side
system.mem_ctrls.servicedByWrQ                    320                       # Number of DRAM read bursts serviced by the write queue
system.mem_ctrls.mergedWrBursts                 13107                       # Number of DRAM write bursts merged with an existing one
system.mem_ctrls.neitherReadNorWriteReqs            0                       # Number of requests that are neither read nor write
system.mem_ctrls.perBankRdBursts::0            144898                       # Per bank write bursts
system.mem_ctrls.perBankRdBursts::1            145896                       # Per bank write bursts
system.mem_ctrls.perBankRdBursts::2            143707                       # Per bank write bursts
system.mem_ctrls.perBankRdBursts::3            141984                       # Per bank write bursts
system.mem_ctrls.perBankRdBursts::4            148509                       # Per bank write bursts
system.mem_ctrls.perBankRdBursts::5            154818                       # Per bank write bursts
system.mem_ctrls.perBankRdBursts::6            145005                       # Per bank write bursts
system.mem_ctrls.perBankRdBursts::7            151211                       # Per bank write bursts
system.mem_ctrls.perBankRdBursts::8            151716                       # Per bank write bursts
system.mem_ctrls.perBankRdBursts::9            145106                       # Per bank write bursts
system.mem_ctrls.perBankRdBursts::10           144922                       # Per bank write bursts
system.mem_ctrls.perBankRdBursts::11           150012                       # Per bank write bursts
system.mem_ctrls.perBankRdBursts::12           140590                       # Per bank write bursts
system.mem_ctrls.perBankRdBursts::13           145682                       # Per bank write bursts
system.mem_ctrls.perBankRdBursts::14           150046                       # Per bank write bursts
system.mem_ctrls.perBankRdBursts::15           149364                       # Per bank write bursts
system.mem_ctrls.perBankWrBursts::0             64651                       # Per bank write bursts
system.mem_ctrls.perBankWrBursts::1             65213                       # Per bank write bursts
system.mem_ctrls.perBankWrBursts::2             64005                       # Per bank write bursts
system.mem_ctrls.perBankWrBursts::3             63577                       # Per bank write bursts
system.mem_ctrls.perBankWrBursts::4             65546                       # Per bank write bursts
system.mem_ctrls.perBankWrBursts::5             66481                       # Per bank write bursts
system.mem_ctrls.perBankWrBursts::6             64541                       # Per bank write bursts
system.mem_ctrls.perBankWrBursts::7             67025                       # Per bank write bursts
system.mem_ctrls.perBankWrBursts::8             65806                       # Per bank write bursts
system.mem_ctrls.perBankWrBursts::9             65192                       # Per bank write bursts
system.mem_ctrls.perBankWrBursts::10            64601                       # Per bank write bursts
system.mem_ctrls.perBankWrBursts::11            64921                       # Per bank write bursts
system.mem_ctrls.perBankWrBursts::12            63466                       # Per bank write bursts
system.mem_ctrls.perBankWrBursts::13            64854                       # Per bank write bursts
system.mem_ctrls.perBankWrBursts::14            65220                       # Per bank write bursts
system.mem_ctrls.perBankWrBursts::15            65666                       # Per bank write bursts
system.mem_ctrls.numRdRetry                         0                       # Number of times read queue was full causing retry
system.mem_ctrls.numWrRetry                         0                       # Number of times write queue was full causing retry
system.mem_ctrls.totGap                  2419921532500                       # Total gap between requests
system.mem_ctrls.readPktSize::0                     0                       # Read request sizes (log2)
system.mem_ctrls.readPktSize::1                     0                       # Read request sizes (log2)
system.mem_ctrls.readPktSize::2                     0                       # Read request sizes (log2)
system.mem_ctrls.readPktSize::3                     0                       # Read request sizes (log2)
system.mem_ctrls.readPktSize::4                     0                       # Read request sizes (log2)
system.mem_ctrls.readPktSize::5               2353786                       # Read request sizes (log2)
system.mem_ctrls.readPktSize::6                     0                       # Read request sizes (log2)
system.mem_ctrls.writePktSize::0                    0                       # Write request sizes (log2)
system.mem_ctrls.writePktSize::1                    0                       # Write request sizes (log2)
system.mem_ctrls.writePktSize::2                    0                       # Write request sizes (log2)
system.mem_ctrls.writePktSize::3                    0                       # Write request sizes (log2)
system.mem_ctrls.writePktSize::4                    0                       # Write request sizes (log2)
system.mem_ctrls.writePktSize::5              1053884                       # Write request sizes (log2)
system.mem_ctrls.writePktSize::6                    0                       # Write request sizes (log2)
system.mem_ctrls.rdQLenPdf::0                 2348824                       # What read queue length does an incoming req see
system.mem_ctrls.rdQLenPdf::1                    4598                       # What read queue length does an incoming req see
system.mem_ctrls.rdQLenPdf::2                      43                       # What read queue length does an incoming req see
system.mem_ctrls.rdQLenPdf::3                       1                       # What read queue length does an incoming req see
system.mem_ctrls.rdQLenPdf::4                       0                       # What read queue length does an incoming req see
system.mem_ctrls.rdQLenPdf::5                       0                       # What read queue length does an incoming req see
system.mem_ctrls.rdQLenPdf::6                       0                       # What read queue length does an incoming req see
system.mem_ctrls.rdQLenPdf::7                       0                       # What read queue length does an incoming req see
system.mem_ctrls.rdQLenPdf::8                       0                       # What read queue length does an incoming req see
system.mem_ctrls.rdQLenPdf::9                       0                       # What read queue length does an incoming req see
system.mem_ctrls.rdQLenPdf::10                      0                       # What read queue length does an incoming req see
system.mem_ctrls.rdQLenPdf::11                      0                       # What read queue length does an incoming req see
system.mem_ctrls.rdQLenPdf::12                      0                       # What read queue length does an incoming req see
system.mem_ctrls.rdQLenPdf::13                      0                       # What read queue length does an incoming req see
system.mem_ctrls.rdQLenPdf::14                      0                       # What read queue length does an incoming req see
system.mem_ctrls.rdQLenPdf::15                      0                       # What read queue length does an incoming req see
system.mem_ctrls.rdQLenPdf::16                      0                       # What read queue length does an incoming req see
system.mem_ctrls.rdQLenPdf::17                      0                       # What read queue length does an incoming req see
system.mem_ctrls.rdQLenPdf::18                      0                       # What read queue length does an incoming req see
system.mem_ctrls.rdQLenPdf::19                      0                       # What read queue length does an incoming req see
system.mem_ctrls.rdQLenPdf::20                      0                       # What read queue length does an incoming req see
system.mem_ctrls.rdQLenPdf::21                      0                       # What read queue length does an incoming req see
system.mem_ctrls.rdQLenPdf::22                      0                       # What read queue length does an incoming req see
system.mem_ctrls.rdQLenPdf::23                      0                       # What read queue length does an incoming req see
system.mem_ctrls.rdQLenPdf::24                      0                       # What read queue length does an incoming req see
system.mem_ctrls.rdQLenPdf::25                      0                       # What read queue length does an incoming req see
system.mem_ctrls.rdQLenPdf::26                      0                       # What read queue length does an incoming req see
system.mem_ctrls.rdQLenPdf::27                      0                       # What read queue length does an incoming req see
system.mem_ctrls.rdQLenPdf::28                      0                       # What read queue length does an incoming req see
system.mem_ctrls.rdQLenPdf::29                      0                       # What read queue length does an incoming req see
system.mem_ctrls.rdQLenPdf::30                      0                       # What read queue length does an incoming req see
system.mem_ctrls.rdQLenPdf::31                      0                       # What read queue length does an incoming req see
system.mem_ctrls.wrQLenPdf::0                       0                       # What write queue length does an incoming req see
system.mem_ctrls.wrQLenPdf::1                       0                       # What write queue length does an incoming req see
system.mem_ctrls.wrQLenPdf::2                       0                       # What write queue length does an incoming req see
system.mem_ctrls.wrQLenPdf::3                       0                       # What write queue length does an incoming req see
system.mem_ctrls.wrQLenPdf::4                       0                       # What write queue length does an incoming req see
system.mem_ctrls.wrQLenPdf::5                       0                       # What write queue length does an incoming req see
system.mem_ctrls.wrQLenPdf::6                       0                       # What write queue length does an incoming req see
system.mem_ctrls.wrQLenPdf::7                       0                       # What write queue length does an incoming req see
system.mem_ctrls.wrQLenPdf::8                       0                       # What write queue length does an incoming req see
system.mem_ctrls.wrQLenPdf::9                       0                       # What write queue length does an incoming req see
system.mem_ctrls.wrQLenPdf::10                      0                       # What write queue length does an incoming req see
system.mem_ctrls.wrQLenPdf::11                      0                       # What write queue length does an incoming req see
system.mem_ctrls.wrQLenPdf::12                      0                       # What write queue length does an incoming req see
system.mem_ctrls.wrQLenPdf::13                      0                       # What write queue length does an incoming req see
system.mem_ctrls.wrQLenPdf::14                      0                       # What write queue length does an incoming req see
system.mem_ctrls.wrQLenPdf::15                  30663                       # What write queue length does an incoming req see
system.mem_ctrls.wrQLenPdf::16                  32729                       # What write queue length does an incoming req see
system.mem_ctrls.wrQLenPdf::17                  51431                       # What write queue length does an incoming req see
system.mem_ctrls.wrQLenPdf::18                  62447                       # What write queue length does an incoming req see
system.mem_ctrls.wrQLenPdf::19                  63163                       # What write queue length does an incoming req see
system.mem_ctrls.wrQLenPdf::20                  62992                       # What write queue length does an incoming req see
system.mem_ctrls.wrQLenPdf::21                  62570                       # What write queue length does an incoming req see
system.mem_ctrls.wrQLenPdf::22                  62176                       # What write queue length does an incoming req see
system.mem_ctrls.wrQLenPdf::23                  61813                       # What write queue length does an incoming req see
system.mem_ctrls.wrQLenPdf::24                  61487                       # What write queue length does an incoming req see
system.mem_ctrls.wrQLenPdf::25                  61316                       # What write queue length does an incoming req see
system.mem_ctrls.wrQLenPdf::26                  61253                       # What write queue length does an incoming req see
system.mem_ctrls.wrQLenPdf::27                  61242                       # What write queue length does an incoming req see
system.mem_ctrls.wrQLenPdf::28                  61252                       # What write queue length does an incoming req see
system.mem_ctrls.wrQLenPdf::29                  61085                       # What write queue length does an incoming req see
system.mem_ctrls.wrQLenPdf::30                  61026                       # What write queue length does an incoming req see
system.mem_ctrls.wrQLenPdf::31                  61010                       # What write queue length does an incoming req see
system.mem_ctrls.wrQLenPdf::32                  60991                       # What write queue length does an incoming req see
system.mem_ctrls.wrQLenPdf::33                    114                       # What write queue length does an incoming req see
system.mem_ctrls.wrQLenPdf::34                     13                       # What write queue length does an incoming req see
system.mem_ctrls.wrQLenPdf::35                      4                       # What write queue length does an incoming req see
system.mem_ctrls.wrQLenPdf::36                      0                       # What write queue length does an incoming req see
system.mem_ctrls.wrQLenPdf::37                      0                       # What write queue length does an incoming req see
system.mem_ctrls.wrQLenPdf::38                      0                       # What write queue length does an incoming req see
system.mem_ctrls.wrQLenPdf::39                      0                       # What write queue length does an incoming req see
system.mem_ctrls.wrQLenPdf::40                      0                       # What write queue length does an incoming req see
system.mem_ctrls.wrQLenPdf::41                      0                       # What write queue length does an incoming req see
system.mem_ctrls.wrQLenPdf::42                      0                       # What write queue length does an incoming req see
system.mem_ctrls.wrQLenPdf::43                      0                       # What write queue length does an incoming req see
system.mem_ctrls.wrQLenPdf::44                      0                       # What write queue length does an incoming req see
system.mem_ctrls.wrQLenPdf::45                      0                       # What write queue length does an incoming req see
system.mem_ctrls.wrQLenPdf::46                      0                       # What write queue length does an incoming req see
system.mem_ctrls.wrQLenPdf::47                      0                       # What write queue length does an incoming req see
system.mem_ctrls.wrQLenPdf::48                      0                       # What write queue length does an incoming req see
system.mem_ctrls.wrQLenPdf::49                      0                       # What write queue length does an incoming req see
system.mem_ctrls.wrQLenPdf::50                      0                       # What write queue length does an incoming req see
system.mem_ctrls.wrQLenPdf::51                      0                       # What write queue length does an incoming req see
system.mem_ctrls.wrQLenPdf::52                      0                       # What write queue length does an incoming req see
system.mem_ctrls.wrQLenPdf::53                      0                       # What write queue length does an incoming req see
system.mem_ctrls.wrQLenPdf::54                      0                       # What write queue length does an incoming req see
system.mem_ctrls.wrQLenPdf::55                      0                       # What write queue length does an incoming req see
system.mem_ctrls.wrQLenPdf::56                      0                       # What write queue length does an incoming req see
system.mem_ctrls.wrQLenPdf::57                      0                       # What write queue length does an incoming req see
system.mem_ctrls.wrQLenPdf::58                      0                       # What write queue length does an incoming req see
system.mem_ctrls.wrQLenPdf::59                      0                       # What write queue length does an incoming req see
system.mem_ctrls.wrQLenPdf::60                      0                       # What write queue length does an incoming req see
system.mem_ctrls.wrQLenPdf::61                      0                       # What write queue length does an incoming req see
system.mem_ctrls.wrQLenPdf::62                      0                       # What write queue length does an incoming req see
system.mem_ctrls.wrQLenPdf::63                      0                       # What write queue length does an incoming req see
system.mem_ctrls.bytesPerActivate::samples      1235776                       # Bytes accessed per row activation
system.mem_ctrls.bytesPerActivate::mean    175.785489                       # Bytes accessed per row activation
system.mem_ctrls.bytesPerActivate::gmean   112.981882                       # Bytes accessed per row activation
system.mem_ctrls.bytesPerActivate::stdev   227.832748                       # Bytes accessed per row activation
system.mem_ctrls.bytesPerActivate::0-127       725639     58.72%     58.72% # Bytes accessed per row activation
system.mem_ctrls.bytesPerActivate::128-255       261982     21.20%     79.92% # Bytes accessed per row activation
system.mem_ctrls.bytesPerActivate::256-383       127766     10.34%     90.26% # Bytes accessed per row activation
system.mem_ctrls.bytesPerActivate::384-511        18907      1.53%     91.79% # Bytes accessed per row activation
system.mem_ctrls.bytesPerActivate::512-639        15627      1.26%     93.05% # Bytes accessed per row activation
system.mem_ctrls.bytesPerActivate::640-767        12681      1.03%     94.08% # Bytes accessed per row activation
system.mem_ctrls.bytesPerActivate::768-895        12802      1.04%     95.11% # Bytes accessed per row activation
system.mem_ctrls.bytesPerActivate::896-1023         9768      0.79%     95.91% # Bytes accessed per row activation
system.mem_ctrls.bytesPerActivate::1024-1151        50604      4.09%    100.00% # Bytes accessed per row activation
system.mem_ctrls.bytesPerActivate::total      1235776                       # Bytes accessed per row activation
system.mem_ctrls.rdPerTurnAround::samples        60990                       # Reads before turning the bus around for writes
system.mem_ctrls.rdPerTurnAround::mean      38.585506                       # Reads before turning the bus around for writes
system.mem_ctrls.rdPerTurnAround::stdev     57.972535                       # Reads before turning the bus around for writes
system.mem_ctrls.rdPerTurnAround::0-255         60678     99.49%     99.49% # Reads before turning the bus around for writes
system.mem_ctrls.rdPerTurnAround::256-511          265      0.43%     99.92% # Reads before turning the bus around for writes
system.mem_ctrls.rdPerTurnAround::512-767           33      0.05%     99.98% # Reads before turning the bus around for writes
system.mem_ctrls.rdPerTurnAround::768-1023            1      0.00%     99.98% # Reads before turning the bus around for writes
system.mem_ctrls.rdPerTurnAround::1024-1279            1      0.00%     99.98% # Reads before turning the bus around for writes
system.mem_ctrls.rdPerTurnAround::1280-1535            2      0.00%     99.98% # Reads before turning the bus around for writes
system.mem_ctrls.rdPerTurnAround::1536-1791            1      0.00%     99.99% # Reads before turning the bus around for writes
system.mem_ctrls.rdPerTurnAround::2560-2815            2      0.00%     99.99% # Reads before turning the bus around for writes
system.mem_ctrls.rdPerTurnAround::3328-3583            2      0.00%     99.99% # Reads before turning the bus around for writes
system.mem_ctrls.rdPerTurnAround::3840-4095            1      0.00%     99.99% # Reads before turning the bus around for writes
system.mem_ctrls.rdPerTurnAround::4096-4351            4      0.01%    100.00% # Reads before turning the bus around for writes
system.mem_ctrls.rdPerTurnAround::total         60990                       # Reads before turning the bus around for writes
system.mem_ctrls.wrPerTurnAround::samples        60990                       # Writes before turning the bus around for reads
system.mem_ctrls.wrPerTurnAround::mean      17.064519                       # Writes before turning the bus around for reads
system.mem_ctrls.wrPerTurnAround::gmean     17.033106                       # Writes before turning the bus around for reads
system.mem_ctrls.wrPerTurnAround::stdev      1.041886                       # Writes before turning the bus around for reads
system.mem_ctrls.wrPerTurnAround::16            28436     46.62%     46.62% # Writes before turning the bus around for reads
system.mem_ctrls.wrPerTurnAround::17             1684      2.76%     49.39% # Writes before turning the bus around for reads
system.mem_ctrls.wrPerTurnAround::18            29875     48.98%     98.37% # Writes before turning the bus around for reads
system.mem_ctrls.wrPerTurnAround::19              743      1.22%     99.59% # Writes before turning the bus around for reads
system.mem_ctrls.wrPerTurnAround::20              149      0.24%     99.83% # Writes before turning the bus around for reads
system.mem_ctrls.wrPerTurnAround::21               48      0.08%     99.91% # Writes before turning the bus around for reads
system.mem_ctrls.wrPerTurnAround::22               30      0.05%     99.96% # Writes before turning the bus around for reads
system.mem_ctrls.wrPerTurnAround::23                6      0.01%     99.97% # Writes before turning the bus around for reads
system.mem_ctrls.wrPerTurnAround::24                7      0.01%     99.98% # Writes before turning the bus around for reads
system.mem_ctrls.wrPerTurnAround::25                4      0.01%     99.99% # Writes before turning the bus around for reads
system.mem_ctrls.wrPerTurnAround::26                2      0.00%     99.99% # Writes before turning the bus around for reads
system.mem_ctrls.wrPerTurnAround::27                1      0.00%     99.99% # Writes before turning the bus around for reads
system.mem_ctrls.wrPerTurnAround::28                2      0.00%    100.00% # Writes before turning the bus around for reads
system.mem_ctrls.wrPerTurnAround::32                1      0.00%    100.00% # Writes before turning the bus around for reads
system.mem_ctrls.wrPerTurnAround::34                1      0.00%    100.00% # Writes before turning the bus around for reads
system.mem_ctrls.wrPerTurnAround::39                1      0.00%    100.00% # Writes before turning the bus around for reads
system.mem_ctrls.wrPerTurnAround::total         60990                       # Writes before turning the bus around for reads
system.mem_ctrls.totQLat                  17660744973                       # Total ticks spent queuing
system.mem_ctrls.totMemAccLat             61788232473                       # Total ticks spent from burst creation until serviced by the DRAM
system.mem_ctrls.totBusLat                11767330000                       # Total ticks spent in databus transfers
system.mem_ctrls.avgQLat                      7504.14                       # Average queueing delay per DRAM burst
system.mem_ctrls.avgBusLat                    5000.00                       # Average bus latency per DRAM burst
system.mem_ctrls.avgMemAccLat                26254.14                       # Average memory access latency per DRAM burst
system.mem_ctrls.avgRdBW                        62.24                       # Average DRAM read bandwidth in MiByte/s
system.mem_ctrls.avgWrBW                        27.53                       # Average achieved write bandwidth in MiByte/s
system.mem_ctrls.avgRdBWSys                     31.13                       # Average system read bandwidth in MiByte/s
system.mem_ctrls.avgWrBWSys                     13.94                       # Average system write bandwidth in MiByte/s
system.mem_ctrls.peakBW                      12800.00                       # Theoretical peak bandwidth in MiByte/s
system.mem_ctrls.busUtil                         0.70                       # Data bus utilization in percentage
system.mem_ctrls.busUtilRead                     0.49                       # Data bus utilization in percentage for reads
system.mem_ctrls.busUtilWrite                    0.22                       # Data bus utilization in percentage for writes
system.mem_ctrls.avgRdQLen                       1.00                       # Average read queue length when enqueuing
system.mem_ctrls.avgWrQLen                      24.65                       # Average write queue length when enqueuing
system.mem_ctrls.readRowHits                  1884668                       # Number of row buffer hits during reads
system.mem_ctrls.writeRowHits                  273791                       # Number of row buffer hits during writes
system.mem_ctrls.readRowHitRate                 80.08                       # Row buffer hit rate for reads
system.mem_ctrls.writeRowHitRate                26.31                       # Row buffer hit rate for writes
system.mem_ctrls.avgGap                     710139.64                       # Average gap between requests
system.mem_ctrls.pageHitRate                    63.59                       # Row buffer hit rate, read and write combined
system.mem_ctrls_0.actEnergy               4711528080                       # Energy for activate commands per rank (pJ)
system.mem_ctrls_0.preEnergy               2570774250                       # Energy for precharge commands per rank (pJ)
system.mem_ctrls_0.readEnergy              9568962000                       # Energy for read commands per rank (pJ)
system.mem_ctrls_0.writeEnergy             3396576240                       # Energy for write commands per rank (pJ)
system.mem_ctrls_0.refreshEnergy         159029763360                       # Energy for refresh commands per rank (pJ)
system.mem_ctrls_0.actBackEnergy         456679574235                       # Energy for active background per rank (pJ)
system.mem_ctrls_0.preBackEnergy         1060288293750                       # Energy for precharge background per rank (pJ)
system.mem_ctrls_0.totalEnergy           1696245471915                       # Total energy per rank (pJ)
system.mem_ctrls_0.averagePower            696.665167                       # Core power per rank (mW)
system.mem_ctrls_0.memoryStateTime::IDLE 1755815185250                       # Time in different power states
system.mem_ctrls_0.memoryStateTime::REF   80806440000                       # Time in different power states
system.mem_ctrls_0.memoryStateTime::PRE_PDN            0                       # Time in different power states
system.mem_ctrls_0.memoryStateTime::ACT  583296835750                       # Time in different power states
system.mem_ctrls_0.memoryStateTime::ACT_PDN            0                       # Time in different power states
system.mem_ctrls_1.actEnergy               4737783960                       # Energy for activate commands per rank (pJ)
system.mem_ctrls_1.preEnergy               2585100375                       # Energy for precharge commands per rank (pJ)
system.mem_ctrls_1.readEnergy              9557176200                       # Energy for read commands per rank (pJ)
system.mem_ctrls_1.writeEnergy             3378957120                       # Energy for write commands per rank (pJ)
system.mem_ctrls_1.refreshEnergy         159029763360                       # Energy for refresh commands per rank (pJ)
system.mem_ctrls_1.actBackEnergy         455410637955                       # Energy for active background per rank (pJ)
system.mem_ctrls_1.preBackEnergy         1061401395750                       # Energy for precharge background per rank (pJ)
system.mem_ctrls_1.totalEnergy           1696100814720                       # Total energy per rank (pJ)
system.mem_ctrls_1.averagePower            696.605755                       # Core power per rank (mW)
system.mem_ctrls_1.memoryStateTime::IDLE 1756679102501                       # Time in different power states
system.mem_ctrls_1.memoryStateTime::REF   80806440000                       # Time in different power states
system.mem_ctrls_1.memoryStateTime::PRE_PDN            0                       # Time in different power states
system.mem_ctrls_1.memoryStateTime::ACT  582437241499                       # Time in different power states
system.mem_ctrls_1.memoryStateTime::ACT_PDN            0                       # Time in different power states
system.cpu_voltage_domain.voltage                   1                       # Voltage in Volts
system.cpu_clk_domain.clock                       500                       # Clock period in ticks
system.cpu0.apic_clk_domain.clock                8000                       # Clock period in ticks
system.cpu0.numCycles                      4842064732                       # number of cpu cycles simulated
system.cpu0.numWorkItemsStarted                     0                       # number of work items this cpu started
system.cpu0.numWorkItemsCompleted                   0                       # number of work items this cpu completed
system.cpu0.kern.inst.arm                           0                       # number of arm instructions executed
system.cpu0.kern.inst.quiesce                       0                       # number of quiesce instructions executed
system.cpu0.committedInsts                    3985190                       # Number of instructions committed
system.cpu0.committedOps                      8239089                       # Number of ops (including micro ops) committed
system.cpu0.num_int_alu_accesses              8014844                       # Number of integer alu accesses
system.cpu0.num_fp_alu_accesses                   372                       # Number of float alu accesses
system.cpu0.num_func_calls                     193246                       # number of times a function call or return occured
system.cpu0.num_conditional_control_insts       634479                       # number of instructions that are conditional controls
system.cpu0.num_int_insts                     8014844                       # number of integer instructions
system.cpu0.num_fp_insts                          372                       # number of float instructions
system.cpu0.num_int_register_reads           15662563                       # number of times the integer registers were read
system.cpu0.num_int_register_writes           6603679                       # number of times the integer registers were written
system.cpu0.num_fp_register_reads                 596                       # number of times the floating registers were read
system.cpu0.num_fp_register_writes                261                       # number of times the floating registers were written
system.cpu0.num_cc_register_reads             4929022                       # number of times the CC registers were read
system.cpu0.num_cc_register_writes            3031178                       # number of times the CC registers were written
system.cpu0.num_mem_refs                      1693565                       # number of memory refs
system.cpu0.num_load_insts                    1047582                       # Number of load instructions
system.cpu0.num_store_insts                    645983                       # Number of store instructions
system.cpu0.num_idle_cycles              4816764478.625863                       # Number of idle cycles
system.cpu0.num_busy_cycles              25300253.374137                       # Number of busy cycles
system.cpu0.not_idle_fraction                0.005225                       # Percentage of non-idle cycles
system.cpu0.idle_fraction                    0.994775                       # Percentage of idle cycles
system.cpu0.Branches                           893576                       # Number of branches fetched
system.cpu0.op_class::No_OpClass                83395      1.01%      1.01% # Class of executed instruction
system.cpu0.op_class::IntAlu                  6425777     77.99%     79.00% # Class of executed instruction
system.cpu0.op_class::IntMult                    9603      0.12%     79.12% # Class of executed instruction
system.cpu0.op_class::IntDiv                    26592      0.32%     79.44% # Class of executed instruction
system.cpu0.op_class::FloatAdd                    244      0.00%     79.44% # Class of executed instruction
system.cpu0.op_class::FloatCmp                      0      0.00%     79.44% # Class of executed instruction
system.cpu0.op_class::FloatCvt                      0      0.00%     79.44% # Class of executed instruction
system.cpu0.op_class::FloatMult                     0      0.00%     79.44% # Class of executed instruction
system.cpu0.op_class::FloatDiv                      0      0.00%     79.44% # Class of executed instruction
system.cpu0.op_class::FloatSqrt                     0      0.00%     79.44% # Class of executed instruction
system.cpu0.op_class::SimdAdd                       0      0.00%     79.44% # Class of executed instruction
system.cpu0.op_class::SimdAddAcc                    0      0.00%     79.44% # Class of executed instruction
system.cpu0.op_class::SimdAlu                       0      0.00%     79.44% # Class of executed instruction
system.cpu0.op_class::SimdCmp                       0      0.00%     79.44% # Class of executed instruction
system.cpu0.op_class::SimdCvt                       0      0.00%     79.44% # Class of executed instruction
system.cpu0.op_class::SimdMisc                      0      0.00%     79.44% # Class of executed instruction
system.cpu0.op_class::SimdMult                      0      0.00%     79.44% # Class of executed instruction
system.cpu0.op_class::SimdMultAcc                   0      0.00%     79.44% # Class of executed instruction
system.cpu0.op_class::SimdShift                     0      0.00%     79.44% # Class of executed instruction
system.cpu0.op_class::SimdShiftAcc                  0      0.00%     79.44% # Class of executed instruction
system.cpu0.op_class::SimdSqrt                      0      0.00%     79.44% # Class of executed instruction
system.cpu0.op_class::SimdFloatAdd                  0      0.00%     79.44% # Class of executed instruction
system.cpu0.op_class::SimdFloatAlu                  0      0.00%     79.44% # Class of executed instruction
system.cpu0.op_class::SimdFloatCmp                  0      0.00%     79.44% # Class of executed instruction
system.cpu0.op_class::SimdFloatCvt                  0      0.00%     79.44% # Class of executed instruction
system.cpu0.op_class::SimdFloatDiv                  0      0.00%     79.44% # Class of executed instruction
system.cpu0.op_class::SimdFloatMisc                 0      0.00%     79.44% # Class of executed instruction
system.cpu0.op_class::SimdFloatMult                 0      0.00%     79.44% # Class of executed instruction
system.cpu0.op_class::SimdFloatMultAcc              0      0.00%     79.44% # Class of executed instruction
system.cpu0.op_class::SimdFloatSqrt                 0      0.00%     79.44% # Class of executed instruction
system.cpu0.op_class::MemRead                 1047582     12.71%     92.16% # Class of executed instruction
system.cpu0.op_class::MemWrite                 645983      7.84%    100.00% # Class of executed instruction
system.cpu0.op_class::IprAccess                     0      0.00%    100.00% # Class of executed instruction
system.cpu0.op_class::InstPrefetch                  0      0.00%    100.00% # Class of executed instruction
system.cpu0.op_class::total                   8239176                       # Class of executed instruction
system.cpu1.apic_clk_domain.clock                8000                       # Clock period in ticks
system.cpu1.numCycles                      4840995335                       # number of cpu cycles simulated
system.cpu1.numWorkItemsStarted                     0                       # number of work items this cpu started
system.cpu1.numWorkItemsCompleted                   0                       # number of work items this cpu completed
system.cpu1.kern.inst.arm                           0                       # number of arm instructions executed
system.cpu1.kern.inst.quiesce                       0                       # number of quiesce instructions executed
system.cpu1.committedInsts                  460208009                       # Number of instructions committed
system.cpu1.committedOps                    835419018                       # Number of ops (including micro ops) committed
system.cpu1.num_int_alu_accesses            547605375                       # Number of integer alu accesses
system.cpu1.num_fp_alu_accesses             386922714                       # Number of float alu accesses
system.cpu1.num_func_calls                     772316                       # number of times a function call or return occured
system.cpu1.num_conditional_control_insts     57964767                       # number of instructions that are conditional controls
system.cpu1.num_int_insts                   547605375                       # number of integer instructions
system.cpu1.num_fp_insts                    386922714                       # number of float instructions
system.cpu1.num_int_register_reads         1067592578                       # number of times the integer registers were read
system.cpu1.num_int_register_writes         379934467                       # number of times the integer registers were written
system.cpu1.num_fp_register_reads           470441715                       # number of times the floating registers were read
system.cpu1.num_fp_register_writes          368292885                       # number of times the floating registers were written
system.cpu1.num_cc_register_reads           340708266                       # number of times the CC registers were read
system.cpu1.num_cc_register_writes          192269273                       # number of times the CC registers were written
system.cpu1.num_mem_refs                    138663723                       # number of memory refs
system.cpu1.num_load_insts                  124247566                       # Number of load instructions
system.cpu1.num_store_insts                  14416157                       # Number of store instructions
system.cpu1.num_idle_cycles              3137113512.433404                       # Number of idle cycles
system.cpu1.num_busy_cycles              1703881822.566596                       # Number of busy cycles
system.cpu1.not_idle_fraction                0.351969                       # Percentage of non-idle cycles
system.cpu1.idle_fraction                    0.648031                       # Percentage of idle cycles
system.cpu1.Branches                         60558241                       # Number of branches fetched
system.cpu1.op_class::No_OpClass              1480441      0.18%      0.18% # Class of executed instruction
system.cpu1.op_class::IntAlu                444721804     53.23%     53.41% # Class of executed instruction
system.cpu1.op_class::IntMult                 1615588      0.19%     53.60% # Class of executed instruction
system.cpu1.op_class::IntDiv                    15610      0.00%     53.60% # Class of executed instruction
system.cpu1.op_class::FloatAdd              248938178     29.80%     83.40% # Class of executed instruction
system.cpu1.op_class::FloatCmp                      0      0.00%     83.40% # Class of executed instruction
system.cpu1.op_class::FloatCvt                      0      0.00%     83.40% # Class of executed instruction
system.cpu1.op_class::FloatMult                     0      0.00%     83.40% # Class of executed instruction
system.cpu1.op_class::FloatDiv                      0      0.00%     83.40% # Class of executed instruction
system.cpu1.op_class::FloatSqrt                     0      0.00%     83.40% # Class of executed instruction
system.cpu1.op_class::SimdAdd                       0      0.00%     83.40% # Class of executed instruction
system.cpu1.op_class::SimdAddAcc                    0      0.00%     83.40% # Class of executed instruction
system.cpu1.op_class::SimdAlu                       0      0.00%     83.40% # Class of executed instruction
system.cpu1.op_class::SimdCmp                       0      0.00%     83.40% # Class of executed instruction
system.cpu1.op_class::SimdCvt                       0      0.00%     83.40% # Class of executed instruction
system.cpu1.op_class::SimdMisc                      0      0.00%     83.40% # Class of executed instruction
system.cpu1.op_class::SimdMult                      0      0.00%     83.40% # Class of executed instruction
system.cpu1.op_class::SimdMultAcc                   0      0.00%     83.40% # Class of executed instruction
system.cpu1.op_class::SimdShift                     0      0.00%     83.40% # Class of executed instruction
system.cpu1.op_class::SimdShiftAcc                  0      0.00%     83.40% # Class of executed instruction
system.cpu1.op_class::SimdSqrt                      0      0.00%     83.40% # Class of executed instruction
system.cpu1.op_class::SimdFloatAdd                  0      0.00%     83.40% # Class of executed instruction
system.cpu1.op_class::SimdFloatAlu                  0      0.00%     83.40% # Class of executed instruction
system.cpu1.op_class::SimdFloatCmp                  0      0.00%     83.40% # Class of executed instruction
system.cpu1.op_class::SimdFloatCvt                  0      0.00%     83.40% # Class of executed instruction
system.cpu1.op_class::SimdFloatDiv                  0      0.00%     83.40% # Class of executed instruction
system.cpu1.op_class::SimdFloatMisc                 0      0.00%     83.40% # Class of executed instruction
system.cpu1.op_class::SimdFloatMult                 0      0.00%     83.40% # Class of executed instruction
system.cpu1.op_class::SimdFloatMultAcc              0      0.00%     83.40% # Class of executed instruction
system.cpu1.op_class::SimdFloatSqrt                 0      0.00%     83.40% # Class of executed instruction
system.cpu1.op_class::MemRead               124247566     14.87%     98.27% # Class of executed instruction
system.cpu1.op_class::MemWrite               14416157      1.73%    100.00% # Class of executed instruction
system.cpu1.op_class::IprAccess                     0      0.00%    100.00% # Class of executed instruction
system.cpu1.op_class::InstPrefetch                  0      0.00%    100.00% # Class of executed instruction
system.cpu1.op_class::total                 835435344                       # Class of executed instruction
system.cpu2.apic_clk_domain.clock                8000                       # Clock period in ticks
system.cpu2.numCycles                      4837606788                       # number of cpu cycles simulated
system.cpu2.numWorkItemsStarted                     0                       # number of work items this cpu started
system.cpu2.numWorkItemsCompleted                   0                       # number of work items this cpu completed
system.cpu2.kern.inst.arm                           0                       # number of arm instructions executed
system.cpu2.kern.inst.quiesce                       0                       # number of quiesce instructions executed
system.cpu2.committedInsts                  842267493                       # Number of instructions committed
system.cpu2.committedOps                   1523304665                       # Number of ops (including micro ops) committed
system.cpu2.num_int_alu_accesses            969011749                       # Number of integer alu accesses
system.cpu2.num_fp_alu_accesses             743323717                       # Number of float alu accesses
system.cpu2.num_func_calls                     279575                       # number of times a function call or return occured
system.cpu2.num_conditional_control_insts    103800116                       # number of instructions that are conditional controls
system.cpu2.num_int_insts                   969011749                       # number of integer instructions
system.cpu2.num_fp_insts                    743323717                       # number of float instructions
system.cpu2.num_int_register_reads         1892037200                       # number of times the integer registers were read
system.cpu2.num_int_register_writes         661919542                       # number of times the integer registers were written
system.cpu2.num_fp_register_reads           911994344                       # number of times the floating registers were read
system.cpu2.num_fp_register_writes          707065677                       # number of times the floating registers were written
system.cpu2.num_cc_register_reads           604843352                       # number of times the CC registers were read
system.cpu2.num_cc_register_writes          339247580                       # number of times the CC registers were written
system.cpu2.num_mem_refs                    251865222                       # number of memory refs
system.cpu2.num_load_insts                  227125366                       # Number of load instructions
system.cpu2.num_store_insts                  24739856                       # Number of store instructions
system.cpu2.num_idle_cycles              1708762229.602782                       # Number of idle cycles
system.cpu2.num_busy_cycles              3128844558.397218                       # Number of busy cycles
system.cpu2.not_idle_fraction                0.646775                       # Percentage of non-idle cycles
system.cpu2.idle_fraction                    0.353225                       # Percentage of idle cycles
system.cpu2.Branches                        106897303                       # Number of branches fetched
system.cpu2.op_class::No_OpClass              2495285      0.16%      0.16% # Class of executed instruction
system.cpu2.op_class::IntAlu                791800656     51.98%     52.14% # Class of executed instruction
system.cpu2.op_class::IntMult                 2662460      0.17%     52.32% # Class of executed instruction
system.cpu2.op_class::IntDiv                     9242      0.00%     52.32% # Class of executed instruction
system.cpu2.op_class::FloatAdd              474471893     31.15%     83.47% # Class of executed instruction
system.cpu2.op_class::FloatCmp                      0      0.00%     83.47% # Class of executed instruction
system.cpu2.op_class::FloatCvt                      0      0.00%     83.47% # Class of executed instruction
system.cpu2.op_class::FloatMult                     0      0.00%     83.47% # Class of executed instruction
system.cpu2.op_class::FloatDiv                      0      0.00%     83.47% # Class of executed instruction
system.cpu2.op_class::FloatSqrt                     0      0.00%     83.47% # Class of executed instruction
system.cpu2.op_class::SimdAdd                       0      0.00%     83.47% # Class of executed instruction
system.cpu2.op_class::SimdAddAcc                    0      0.00%     83.47% # Class of executed instruction
system.cpu2.op_class::SimdAlu                       0      0.00%     83.47% # Class of executed instruction
system.cpu2.op_class::SimdCmp                       0      0.00%     83.47% # Class of executed instruction
system.cpu2.op_class::SimdCvt                       0      0.00%     83.47% # Class of executed instruction
system.cpu2.op_class::SimdMisc                      0      0.00%     83.47% # Class of executed instruction
system.cpu2.op_class::SimdMult                      0      0.00%     83.47% # Class of executed instruction
system.cpu2.op_class::SimdMultAcc                   0      0.00%     83.47% # Class of executed instruction
system.cpu2.op_class::SimdShift                     0      0.00%     83.47% # Class of executed instruction
system.cpu2.op_class::SimdShiftAcc                  0      0.00%     83.47% # Class of executed instruction
system.cpu2.op_class::SimdSqrt                      0      0.00%     83.47% # Class of executed instruction
system.cpu2.op_class::SimdFloatAdd                  0      0.00%     83.47% # Class of executed instruction
system.cpu2.op_class::SimdFloatAlu                  0      0.00%     83.47% # Class of executed instruction
system.cpu2.op_class::SimdFloatCmp                  0      0.00%     83.47% # Class of executed instruction
system.cpu2.op_class::SimdFloatCvt                  0      0.00%     83.47% # Class of executed instruction
system.cpu2.op_class::SimdFloatDiv                  0      0.00%     83.47% # Class of executed instruction
system.cpu2.op_class::SimdFloatMisc                 0      0.00%     83.47% # Class of executed instruction
system.cpu2.op_class::SimdFloatMult                 0      0.00%     83.47% # Class of executed instruction
system.cpu2.op_class::SimdFloatMultAcc              0      0.00%     83.47% # Class of executed instruction
system.cpu2.op_class::SimdFloatSqrt                 0      0.00%     83.47% # Class of executed instruction
system.cpu2.op_class::MemRead               227125366     14.91%     98.38% # Class of executed instruction
system.cpu2.op_class::MemWrite               24739856      1.62%    100.00% # Class of executed instruction
system.cpu2.op_class::IprAccess                     0      0.00%    100.00% # Class of executed instruction
system.cpu2.op_class::InstPrefetch                  0      0.00%    100.00% # Class of executed instruction
system.cpu2.op_class::total                1523304758                       # Class of executed instruction
system.cpu3.apic_clk_domain.clock                8000                       # Clock period in ticks
system.cpu3.numCycles                      4839072771                       # number of cpu cycles simulated
system.cpu3.numWorkItemsStarted                     0                       # number of work items this cpu started
system.cpu3.numWorkItemsCompleted                   0                       # number of work items this cpu completed
system.cpu3.kern.inst.arm                           0                       # number of arm instructions executed
system.cpu3.kern.inst.quiesce                       0                       # number of quiesce instructions executed
system.cpu3.committedInsts                    2017781                       # Number of instructions committed
system.cpu3.committedOps                      4297865                       # Number of ops (including micro ops) committed
system.cpu3.num_int_alu_accesses              4208431                       # Number of integer alu accesses
system.cpu3.num_fp_alu_accesses                    39                       # Number of float alu accesses
system.cpu3.num_func_calls                     113340                       # number of times a function call or return occured
system.cpu3.num_conditional_control_insts       332614                       # number of instructions that are conditional controls
system.cpu3.num_int_insts                     4208431                       # number of integer instructions
system.cpu3.num_fp_insts                           39                       # number of float instructions
system.cpu3.num_int_register_reads            8432642                       # number of times the integer registers were read
system.cpu3.num_int_register_writes           3476130                       # number of times the integer registers were written
system.cpu3.num_fp_register_reads                  63                       # number of times the floating registers were read
system.cpu3.num_fp_register_writes                 31                       # number of times the floating registers were written
system.cpu3.num_cc_register_reads             2567850                       # number of times the CC registers were read
system.cpu3.num_cc_register_writes            1316462                       # number of times the CC registers were written
system.cpu3.num_mem_refs                       981389                       # number of memory refs
system.cpu3.num_load_insts                     609973                       # Number of load instructions
system.cpu3.num_store_insts                    371416                       # Number of store instructions
system.cpu3.num_idle_cycles              4829920708.878263                       # Number of idle cycles
system.cpu3.num_busy_cycles              9152062.121738                       # Number of busy cycles
system.cpu3.not_idle_fraction                0.001891                       # Percentage of non-idle cycles
system.cpu3.idle_fraction                    0.998109                       # Percentage of idle cycles
system.cpu3.Branches                           482496                       # Number of branches fetched
system.cpu3.op_class::No_OpClass                74101      1.72%      1.72% # Class of executed instruction
system.cpu3.op_class::IntAlu                  3207546     74.63%     76.35% # Class of executed instruction
system.cpu3.op_class::IntMult                    8069      0.19%     76.54% # Class of executed instruction
system.cpu3.op_class::IntDiv                    26753      0.62%     77.17% # Class of executed instruction
system.cpu3.op_class::FloatAdd                     30      0.00%     77.17% # Class of executed instruction
system.cpu3.op_class::FloatCmp                      0      0.00%     77.17% # Class of executed instruction
system.cpu3.op_class::FloatCvt                      0      0.00%     77.17% # Class of executed instruction
system.cpu3.op_class::FloatMult                     0      0.00%     77.17% # Class of executed instruction
system.cpu3.op_class::FloatDiv                      0      0.00%     77.17% # Class of executed instruction
system.cpu3.op_class::FloatSqrt                     0      0.00%     77.17% # Class of executed instruction
system.cpu3.op_class::SimdAdd                       0      0.00%     77.17% # Class of executed instruction
system.cpu3.op_class::SimdAddAcc                    0      0.00%     77.17% # Class of executed instruction
system.cpu3.op_class::SimdAlu                       0      0.00%     77.17% # Class of executed instruction
system.cpu3.op_class::SimdCmp                       0      0.00%     77.17% # Class of executed instruction
system.cpu3.op_class::SimdCvt                       0      0.00%     77.17% # Class of executed instruction
system.cpu3.op_class::SimdMisc                      0      0.00%     77.17% # Class of executed instruction
system.cpu3.op_class::SimdMult                      0      0.00%     77.17% # Class of executed instruction
system.cpu3.op_class::SimdMultAcc                   0      0.00%     77.17% # Class of executed instruction
system.cpu3.op_class::SimdShift                     0      0.00%     77.17% # Class of executed instruction
system.cpu3.op_class::SimdShiftAcc                  0      0.00%     77.17% # Class of executed instruction
system.cpu3.op_class::SimdSqrt                      0      0.00%     77.17% # Class of executed instruction
system.cpu3.op_class::SimdFloatAdd                  0      0.00%     77.17% # Class of executed instruction
system.cpu3.op_class::SimdFloatAlu                  0      0.00%     77.17% # Class of executed instruction
system.cpu3.op_class::SimdFloatCmp                  0      0.00%     77.17% # Class of executed instruction
system.cpu3.op_class::SimdFloatCvt                  0      0.00%     77.17% # Class of executed instruction
system.cpu3.op_class::SimdFloatDiv                  0      0.00%     77.17% # Class of executed instruction
system.cpu3.op_class::SimdFloatMisc                 0      0.00%     77.17% # Class of executed instruction
system.cpu3.op_class::SimdFloatMult                 0      0.00%     77.17% # Class of executed instruction
system.cpu3.op_class::SimdFloatMultAcc              0      0.00%     77.17% # Class of executed instruction
system.cpu3.op_class::SimdFloatSqrt                 0      0.00%     77.17% # Class of executed instruction
system.cpu3.op_class::MemRead                  609973     14.19%     91.36% # Class of executed instruction
system.cpu3.op_class::MemWrite                 371416      8.64%    100.00% # Class of executed instruction
system.cpu3.op_class::IprAccess                     0      0.00%    100.00% # Class of executed instruction
system.cpu3.op_class::InstPrefetch                  0      0.00%    100.00% # Class of executed instruction
system.cpu3.op_class::total                   4297888                       # Class of executed instruction
system.iobus.trans_dist::ReadReq                  420                       # Transaction distribution
system.iobus.trans_dist::ReadResp                 420                       # Transaction distribution
system.iobus.trans_dist::WriteReq                3165                       # Transaction distribution
system.iobus.trans_dist::WriteResp               3165                       # Transaction distribution
system.iobus.trans_dist::MessageReq                58                       # Transaction distribution
system.iobus.trans_dist::MessageResp               58                       # Transaction distribution
system.iobus.pkt_count_system.pc.south_bridge.io_apic.int_master::system.ruby.l1_cntrl0.sequencer.pio-slave-port           24                       # Packet count per connected master and slave (bytes)
system.iobus.pkt_count_system.pc.south_bridge.io_apic.int_master::system.ruby.l1_cntrl1.sequencer.pio-slave-port           22                       # Packet count per connected master and slave (bytes)
system.iobus.pkt_count_system.pc.south_bridge.io_apic.int_master::system.ruby.l1_cntrl2.sequencer.pio-slave-port           22                       # Packet count per connected master and slave (bytes)
system.iobus.pkt_count_system.pc.south_bridge.io_apic.int_master::system.ruby.l1_cntrl3.sequencer.pio-slave-port           24                       # Packet count per connected master and slave (bytes)
system.iobus.pkt_count_system.pc.south_bridge.io_apic.int_master::total           92                       # Packet count per connected master and slave (bytes)
system.iobus.pkt_count_system.ruby.l1_cntrl0.sequencer.mem-master-port::system.pc.south_bridge.ide.pio          472                       # Packet count per connected master and slave (bytes)
system.iobus.pkt_count_system.ruby.l1_cntrl0.sequencer.mem-master-port::system.pc.south_bridge.io_apic.pio            8                       # Packet count per connected master and slave (bytes)
system.iobus.pkt_count_system.ruby.l1_cntrl0.sequencer.mem-master-port::system.ruby.l1_cntrl0.sequencer.pio-slave-port         1268                       # Packet count per connected master and slave (bytes)
system.iobus.pkt_count_system.ruby.l1_cntrl0.sequencer.mem-master-port::system.ruby.l1_cntrl1.sequencer.pio-slave-port            4                       # Packet count per connected master and slave (bytes)
system.iobus.pkt_count_system.ruby.l1_cntrl0.sequencer.mem-master-port::system.ruby.l1_cntrl2.sequencer.pio-slave-port            2                       # Packet count per connected master and slave (bytes)
system.iobus.pkt_count_system.ruby.l1_cntrl0.sequencer.mem-master-port::system.ruby.l1_cntrl3.sequencer.pio-slave-port            2                       # Packet count per connected master and slave (bytes)
system.iobus.pkt_count_system.ruby.l1_cntrl0.sequencer.mem-master-port::total         1756                       # Packet count per connected master and slave (bytes)
system.iobus.pkt_count_system.ruby.l1_cntrl1.sequencer.mem-master-port::system.pc.south_bridge.ide.pio          596                       # Packet count per connected master and slave (bytes)
system.iobus.pkt_count_system.ruby.l1_cntrl1.sequencer.mem-master-port::system.pc.south_bridge.io_apic.pio            6                       # Packet count per connected master and slave (bytes)
system.iobus.pkt_count_system.ruby.l1_cntrl1.sequencer.mem-master-port::system.pc.com_1.pio          174                       # Packet count per connected master and slave (bytes)
system.iobus.pkt_count_system.ruby.l1_cntrl1.sequencer.mem-master-port::system.ruby.l1_cntrl0.sequencer.pio-slave-port            2                       # Packet count per connected master and slave (bytes)
system.iobus.pkt_count_system.ruby.l1_cntrl1.sequencer.mem-master-port::system.ruby.l1_cntrl1.sequencer.pio-slave-port         1254                       # Packet count per connected master and slave (bytes)
system.iobus.pkt_count_system.ruby.l1_cntrl1.sequencer.mem-master-port::system.ruby.l1_cntrl2.sequencer.pio-slave-port            2                       # Packet count per connected master and slave (bytes)
system.iobus.pkt_count_system.ruby.l1_cntrl1.sequencer.mem-master-port::total         2034                       # Packet count per connected master and slave (bytes)
system.iobus.pkt_count_system.ruby.l1_cntrl2.sequencer.mem-master-port::system.pc.south_bridge.ide.pio          426                       # Packet count per connected master and slave (bytes)
system.iobus.pkt_count_system.ruby.l1_cntrl2.sequencer.mem-master-port::system.pc.south_bridge.io_apic.pio            8                       # Packet count per connected master and slave (bytes)
system.iobus.pkt_count_system.ruby.l1_cntrl2.sequencer.mem-master-port::system.ruby.l1_cntrl0.sequencer.pio-slave-port            4                       # Packet count per connected master and slave (bytes)
system.iobus.pkt_count_system.ruby.l1_cntrl2.sequencer.mem-master-port::system.ruby.l1_cntrl1.sequencer.pio-slave-port            4                       # Packet count per connected master and slave (bytes)
system.iobus.pkt_count_system.ruby.l1_cntrl2.sequencer.mem-master-port::system.ruby.l1_cntrl2.sequencer.pio-slave-port         1266                       # Packet count per connected master and slave (bytes)
system.iobus.pkt_count_system.ruby.l1_cntrl2.sequencer.mem-master-port::system.ruby.l1_cntrl3.sequencer.pio-slave-port            2                       # Packet count per connected master and slave (bytes)
system.iobus.pkt_count_system.ruby.l1_cntrl2.sequencer.mem-master-port::total         1710                       # Packet count per connected master and slave (bytes)
system.iobus.pkt_count_system.ruby.l1_cntrl3.sequencer.mem-master-port::system.pc.south_bridge.ide.pio          438                       # Packet count per connected master and slave (bytes)
system.iobus.pkt_count_system.ruby.l1_cntrl3.sequencer.mem-master-port::system.pc.south_bridge.io_apic.pio            8                       # Packet count per connected master and slave (bytes)
system.iobus.pkt_count_system.ruby.l1_cntrl3.sequencer.mem-master-port::system.pc.com_1.pio            2                       # Packet count per connected master and slave (bytes)
system.iobus.pkt_count_system.ruby.l1_cntrl3.sequencer.mem-master-port::system.ruby.l1_cntrl0.sequencer.pio-slave-port            2                       # Packet count per connected master and slave (bytes)
system.iobus.pkt_count_system.ruby.l1_cntrl3.sequencer.mem-master-port::system.ruby.l1_cntrl3.sequencer.pio-slave-port         1244                       # Packet count per connected master and slave (bytes)
system.iobus.pkt_count_system.ruby.l1_cntrl3.sequencer.mem-master-port::total         1694                       # Packet count per connected master and slave (bytes)
system.iobus.pkt_count::total                    7286                       # Packet count per connected master and slave (bytes)
system.iobus.pkt_size_system.pc.south_bridge.io_apic.int_master::system.ruby.l1_cntrl0.sequencer.pio-slave-port           48                       # Cumulative packet size per connected master and slave (bytes)
system.iobus.pkt_size_system.pc.south_bridge.io_apic.int_master::system.ruby.l1_cntrl1.sequencer.pio-slave-port           44                       # Cumulative packet size per connected master and slave (bytes)
system.iobus.pkt_size_system.pc.south_bridge.io_apic.int_master::system.ruby.l1_cntrl2.sequencer.pio-slave-port           44                       # Cumulative packet size per connected master and slave (bytes)
system.iobus.pkt_size_system.pc.south_bridge.io_apic.int_master::system.ruby.l1_cntrl3.sequencer.pio-slave-port           48                       # Cumulative packet size per connected master and slave (bytes)
system.iobus.pkt_size_system.pc.south_bridge.io_apic.int_master::total          184                       # Cumulative packet size per connected master and slave (bytes)
system.iobus.pkt_size_system.ruby.l1_cntrl0.sequencer.mem-master-port::system.pc.south_bridge.ide.pio          266                       # Cumulative packet size per connected master and slave (bytes)
system.iobus.pkt_size_system.ruby.l1_cntrl0.sequencer.mem-master-port::system.pc.south_bridge.io_apic.pio           16                       # Cumulative packet size per connected master and slave (bytes)
system.iobus.pkt_size_system.ruby.l1_cntrl0.sequencer.mem-master-port::system.ruby.l1_cntrl0.sequencer.pio-slave-port         2536                       # Cumulative packet size per connected master and slave (bytes)
system.iobus.pkt_size_system.ruby.l1_cntrl0.sequencer.mem-master-port::system.ruby.l1_cntrl1.sequencer.pio-slave-port            8                       # Cumulative packet size per connected master and slave (bytes)
system.iobus.pkt_size_system.ruby.l1_cntrl0.sequencer.mem-master-port::system.ruby.l1_cntrl2.sequencer.pio-slave-port            4                       # Cumulative packet size per connected master and slave (bytes)
system.iobus.pkt_size_system.ruby.l1_cntrl0.sequencer.mem-master-port::system.ruby.l1_cntrl3.sequencer.pio-slave-port            4                       # Cumulative packet size per connected master and slave (bytes)
system.iobus.pkt_size_system.ruby.l1_cntrl0.sequencer.mem-master-port::total         2834                       # Cumulative packet size per connected master and slave (bytes)
system.iobus.pkt_size_system.ruby.l1_cntrl1.sequencer.mem-master-port::system.pc.south_bridge.ide.pio          340                       # Cumulative packet size per connected master and slave (bytes)
system.iobus.pkt_size_system.ruby.l1_cntrl1.sequencer.mem-master-port::system.pc.south_bridge.io_apic.pio           12                       # Cumulative packet size per connected master and slave (bytes)
system.iobus.pkt_size_system.ruby.l1_cntrl1.sequencer.mem-master-port::system.pc.com_1.pio           87                       # Cumulative packet size per connected master and slave (bytes)
system.iobus.pkt_size_system.ruby.l1_cntrl1.sequencer.mem-master-port::system.ruby.l1_cntrl0.sequencer.pio-slave-port            4                       # Cumulative packet size per connected master and slave (bytes)
system.iobus.pkt_size_system.ruby.l1_cntrl1.sequencer.mem-master-port::system.ruby.l1_cntrl1.sequencer.pio-slave-port         2508                       # Cumulative packet size per connected master and slave (bytes)
system.iobus.pkt_size_system.ruby.l1_cntrl1.sequencer.mem-master-port::system.ruby.l1_cntrl2.sequencer.pio-slave-port            4                       # Cumulative packet size per connected master and slave (bytes)
system.iobus.pkt_size_system.ruby.l1_cntrl1.sequencer.mem-master-port::total         2955                       # Cumulative packet size per connected master and slave (bytes)
system.iobus.pkt_size_system.ruby.l1_cntrl2.sequencer.mem-master-port::system.pc.south_bridge.ide.pio          240                       # Cumulative packet size per connected master and slave (bytes)
system.iobus.pkt_size_system.ruby.l1_cntrl2.sequencer.mem-master-port::system.pc.south_bridge.io_apic.pio           16                       # Cumulative packet size per connected master and slave (bytes)
system.iobus.pkt_size_system.ruby.l1_cntrl2.sequencer.mem-master-port::system.ruby.l1_cntrl0.sequencer.pio-slave-port            8                       # Cumulative packet size per connected master and slave (bytes)
system.iobus.pkt_size_system.ruby.l1_cntrl2.sequencer.mem-master-port::system.ruby.l1_cntrl1.sequencer.pio-slave-port            8                       # Cumulative packet size per connected master and slave (bytes)
system.iobus.pkt_size_system.ruby.l1_cntrl2.sequencer.mem-master-port::system.ruby.l1_cntrl2.sequencer.pio-slave-port         2532                       # Cumulative packet size per connected master and slave (bytes)
system.iobus.pkt_size_system.ruby.l1_cntrl2.sequencer.mem-master-port::system.ruby.l1_cntrl3.sequencer.pio-slave-port            4                       # Cumulative packet size per connected master and slave (bytes)
system.iobus.pkt_size_system.ruby.l1_cntrl2.sequencer.mem-master-port::total         2808                       # Cumulative packet size per connected master and slave (bytes)
system.iobus.pkt_size_system.ruby.l1_cntrl3.sequencer.mem-master-port::system.pc.south_bridge.ide.pio          246                       # Cumulative packet size per connected master and slave (bytes)
system.iobus.pkt_size_system.ruby.l1_cntrl3.sequencer.mem-master-port::system.pc.south_bridge.io_apic.pio           16                       # Cumulative packet size per connected master and slave (bytes)
system.iobus.pkt_size_system.ruby.l1_cntrl3.sequencer.mem-master-port::system.pc.com_1.pio            1                       # Cumulative packet size per connected master and slave (bytes)
system.iobus.pkt_size_system.ruby.l1_cntrl3.sequencer.mem-master-port::system.ruby.l1_cntrl0.sequencer.pio-slave-port            4                       # Cumulative packet size per connected master and slave (bytes)
system.iobus.pkt_size_system.ruby.l1_cntrl3.sequencer.mem-master-port::system.ruby.l1_cntrl3.sequencer.pio-slave-port         2488                       # Cumulative packet size per connected master and slave (bytes)
system.iobus.pkt_size_system.ruby.l1_cntrl3.sequencer.mem-master-port::total         2755                       # Cumulative packet size per connected master and slave (bytes)
system.iobus.pkt_size::total                    11536                       # Cumulative packet size per connected master and slave (bytes)
system.iobus.reqLayer2.occupancy              1668000                       # Layer occupancy (ticks)
system.iobus.reqLayer2.utilization                0.0                       # Layer utilization (%)
system.iobus.reqLayer8.occupancy                26496                       # Layer occupancy (ticks)
system.iobus.reqLayer8.utilization                0.0                       # Layer utilization (%)
system.iobus.reqLayer12.occupancy              112500                       # Layer occupancy (ticks)
system.iobus.reqLayer12.utilization               0.0                       # Layer utilization (%)
system.iobus.reqLayer17.occupancy             1607487                       # Layer occupancy (ticks)
system.iobus.reqLayer17.utilization               0.0                       # Layer utilization (%)
system.iobus.reqLayer18.occupancy             1635298                       # Layer occupancy (ticks)
system.iobus.reqLayer18.utilization               0.0                       # Layer utilization (%)
system.iobus.reqLayer19.occupancy             1677650                       # Layer occupancy (ticks)
system.iobus.reqLayer19.utilization               0.0                       # Layer utilization (%)
system.iobus.reqLayer20.occupancy             1584488                       # Layer occupancy (ticks)
system.iobus.reqLayer20.utilization               0.0                       # Layer utilization (%)
system.iobus.respLayer0.occupancy               80458                       # Layer occupancy (ticks)
system.iobus.respLayer0.utilization               0.0                       # Layer utilization (%)
system.iobus.respLayer2.occupancy             1285000                       # Layer occupancy (ticks)
system.iobus.respLayer2.utilization               0.0                       # Layer utilization (%)
system.iobus.respLayer4.occupancy             1494500                       # Layer occupancy (ticks)
system.iobus.respLayer4.utilization               0.0                       # Layer utilization (%)
system.iobus.respLayer6.occupancy             1255000                       # Layer occupancy (ticks)
system.iobus.respLayer6.utilization               0.0                       # Layer utilization (%)
system.iobus.respLayer8.occupancy             1241000                       # Layer occupancy (ticks)
system.iobus.respLayer8.utilization               0.0                       # Layer utilization (%)
system.pc.south_bridge.ide.disks.dma_read_full_pages          357                       # Number of full page size DMA reads (not PRD).
system.pc.south_bridge.ide.disks.dma_read_bytes      1462272                       # Number of bytes transfered via DMA reads (not PRD).
system.pc.south_bridge.ide.disks.dma_read_txs          357                       # Number of DMA read transactions (not PRD).
system.pc.south_bridge.ide.disks.dma_write_full_pages            0                       # Number of full page size DMA writes.
system.pc.south_bridge.ide.disks.dma_write_bytes            0                       # Number of bytes transfered via DMA writes.
system.pc.south_bridge.ide.disks.dma_write_txs            0                       # Number of DMA write transactions.
system.ruby.clk_domain.clock                      500                       # Clock period in ticks
system.ruby.outstanding_req_hist_seqr::bucket_size            1                      
system.ruby.outstanding_req_hist_seqr::max_bucket            9                      
system.ruby.outstanding_req_hist_seqr::samples   2280943100                      
system.ruby.outstanding_req_hist_seqr::mean     1.004798                      
system.ruby.outstanding_req_hist_seqr::gmean     1.003331                      
system.ruby.outstanding_req_hist_seqr::stdev     0.069098                      
system.ruby.outstanding_req_hist_seqr    |           0      0.00%      0.00% |  2270000018     99.52%     99.52% |    10943082      0.48%    100.00% |           0      0.00%    100.00% |           0      0.00%    100.00% |           0      0.00%    100.00% |           0      0.00%    100.00% |           0      0.00%    100.00% |           0      0.00%    100.00% |           0      0.00%    100.00%
system.ruby.outstanding_req_hist_seqr::total   2280943100                      
[...]
system.ruby.L1Cache_Controller.S.Store::total       467590                      
system.ruby.L1Cache_Controller.S.L1_Replacement |       94919      4.46%      4.46% |      627289     29.45%     33.90% |     1338945     62.86%     96.76% |       69022      3.24%    100.00%
system.ruby.L1Cache_Controller.S.L1_Replacement::total      2130175                      
system.ruby.L1Cache_Controller.S.Fwd_GETS |        3814     35.46%     35.46% |        2556     23.76%     59.22% |        2022     18.80%     78.02% |        2364     21.98%    100.00%
system.ruby.L1Cache_Controller.S.Fwd_GETS::total        10756                      
system.ruby.L1Cache_Controller.S.Inv     |        2981     23.53%     23.53% |        4546     35.88%     59.40% |        1163      9.18%     68.58% |        3981     31.42%    100.00%
system.ruby.L1Cache_Controller.S.Inv::total        12671                      
system.ruby.L1Cache_Controller.O.Load    |        1189     17.46%     17.46% |        1040     15.28%     32.74% |        3526     51.79%     84.53% |        1053     15.47%    100.00%
system.ruby.L1Cache_Controller.O.Load::total         6808                      
system.ruby.L1Cache_Controller.O.Store   |          47     22.27%     22.27% |          28     13.27%     35.55% |         116     54.98%     90.52% |          20      9.48%    100.00%
system.ruby.L1Cache_Controller.O.Store::total          211                      
system.ruby.L1Cache_Controller.O.L1_Replacement |         353     20.69%     20.69% |         400     23.45%     44.14% |         396     23.21%     67.35% |         557     32.65%    100.00%
system.ruby.L1Cache_Controller.O.L1_Replacement::total         1706                      
system.ruby.L1Cache_Controller.O.Fwd_GETX |        1818     15.18%     15.18% |        2091     17.46%     32.64% |        4149     34.64%     67.28% |        3918     32.72%    100.00%
system.ruby.L1Cache_Controller.O.Fwd_GETX::total        11976                      
system.ruby.L1Cache_Controller.O.Fwd_GETS |         784      8.42%      8.42% |         932     10.01%     18.44% |        4700     50.49%     68.93% |        2892     31.07%    100.00%
system.ruby.L1Cache_Controller.O.Fwd_GETS::total         9308                      
system.ruby.L1Cache_Controller.M.Load    |       33465      0.19%      0.19% |     5683823     32.13%     32.32% |    11930897     67.45%     99.77% |       40807      0.23%    100.00%
system.ruby.L1Cache_Controller.M.Load::total     17688992                      
system.ruby.L1Cache_Controller.M.Store   |        2556      3.03%      3.03% |       14710     17.47%     20.50% |       63610     75.53%     96.03% |        3345      3.97%    100.00%
system.ruby.L1Cache_Controller.M.Store::total        84221                      
system.ruby.L1Cache_Controller.M.L1_Replacement |        5164      3.40%      3.40% |       39714     26.16%     29.57% |      100708     66.35%     95.91% |        6205      4.09%    100.00%
system.ruby.L1Cache_Controller.M.L1_Replacement::total       151791                      
system.ruby.L1Cache_Controller.M.Fwd_GETX |         268      9.41%      9.41% |         547     19.20%     28.61% |        1290     45.28%     73.89% |         744     26.11%    100.00%
system.ruby.L1Cache_Controller.M.Fwd_GETX::total         2849                      
system.ruby.L1Cache_Controller.M.Fwd_GETS |        2221     16.19%     16.19% |        2319     16.90%     33.09% |        4698     34.24%     67.33% |        4483     32.67%    100.00%
system.ruby.L1Cache_Controller.M.Fwd_GETS::total        13721                      
system.ruby.L1Cache_Controller.M_W.Load  |        7955      2.07%      2.07% |       92695     24.14%     26.21% |      270362     70.41%     96.63% |       12952      3.37%    100.00%
system.ruby.L1Cache_Controller.M_W.Load::total       383964                      
system.ruby.L1Cache_Controller.M_W.Store |        1086      0.39%      0.39% |       89170     31.76%     32.15% |      189380     67.45%     99.60% |        1137      0.40%    100.00%
system.ruby.L1Cache_Controller.M_W.Store::total       280773                      
system.ruby.L1Cache_Controller.M_W.L1_Replacement |           9    100.00%    100.00% |           0      0.00%    100.00% |           0      0.00%    100.00% |           0      0.00%    100.00%
system.ruby.L1Cache_Controller.M_W.L1_Replacement::total            9                      
system.ruby.L1Cache_Controller.M_W.Fwd_GETX |          18     64.29%     64.29% |          10     35.71%    100.00% |           0      0.00%    100.00% |           0      0.00%    100.00%
system.ruby.L1Cache_Controller.M_W.Fwd_GETX::total           28                      
system.ruby.L1Cache_Controller.M_W.Fwd_GETS |          96     53.93%     53.93% |          46     25.84%     79.78% |          24     13.48%     93.26% |          12      6.74%    100.00%
system.ruby.L1Cache_Controller.M_W.Fwd_GETS::total          178                      
system.ruby.L1Cache_Controller.M_W.Use_Timeout |       10312      4.08%      4.08% |       57284     22.67%     26.75% |      170235     67.36%     94.10% |       14902      5.90%    100.00%
system.ruby.L1Cache_Controller.M_W.Use_Timeout::total       252733                      
system.ruby.L1Cache_Controller.MM.Load   |      655438      0.85%      0.85% |    22218680     28.98%     29.83% |    53270397     69.48%     99.31% |      529896      0.69%    100.00%
system.ruby.L1Cache_Controller.MM.Load::total     76674411                      
system.ruby.L1Cache_Controller.MM.Store  |      719993      1.40%      1.40% |    14623516     28.43%     29.83% |    35535188     69.07%     98.90% |      565690      1.10%    100.00%
system.ruby.L1Cache_Controller.MM.Store::total     51444387                      
system.ruby.L1Cache_Controller.MM.L1_Replacement |       51162      3.00%      3.00% |      505288     29.60%     32.59% |     1129245     66.14%     98.74% |       21554      1.26%    100.00%
system.ruby.L1Cache_Controller.MM.L1_Replacement::total      1707249                      
system.ruby.L1Cache_Controller.MM.Fwd_GETX |        1162     28.33%     28.33% |         788     19.21%     47.55% |        1004     24.48%     72.03% |        1147     27.97%    100.00%
system.ruby.L1Cache_Controller.MM.Fwd_GETX::total         4101                      
system.ruby.L1Cache_Controller.MM.Fwd_GETS |        6207     40.69%     40.69% |        3490     22.88%     63.57% |        2756     18.07%     81.64% |        2801     18.36%    100.00%
system.ruby.L1Cache_Controller.MM.Fwd_GETS::total        15254                      
system.ruby.L1Cache_Controller.MM.Fwd_DMA |          43     11.11%     11.11% |         315     81.40%     92.51% |          13      3.36%     95.87% |          16      4.13%    100.00%
system.ruby.L1Cache_Controller.MM.Fwd_DMA::total          387                      
system.ruby.L1Cache_Controller.MM_W.Load |       11390     12.64%     12.64% |       29945     33.23%     45.87% |       47349     52.55%     98.42% |        1422      1.58%    100.00%
system.ruby.L1Cache_Controller.MM_W.Load::total        90106                      
system.ruby.L1Cache_Controller.MM_W.Store |      131031      9.52%      9.52% |      374805     27.23%     36.75% |      822438     59.76%     96.51% |       48013      3.49%    100.00%
system.ruby.L1Cache_Controller.MM_W.Store::total      1376287                      
system.ruby.L1Cache_Controller.MM_W.L1_Replacement |          12    100.00%    100.00% |           0      0.00%    100.00% |           0      0.00%    100.00% |           0      0.00%    100.00%
system.ruby.L1Cache_Controller.MM_W.L1_Replacement::total           12                      
system.ruby.L1Cache_Controller.MM_W.Fwd_GETX |          23     85.19%     85.19% |           0      0.00%     85.19% |           1      3.70%     88.89% |           3     11.11%    100.00%
system.ruby.L1Cache_Controller.MM_W.Fwd_GETX::total           27                      
system.ruby.L1Cache_Controller.MM_W.Fwd_GETS |         107     35.91%     35.91% |          55     18.46%     54.36% |          77     25.84%     80.20% |          59     19.80%    100.00%
system.ruby.L1Cache_Controller.MM_W.Fwd_GETS::total          298                      
system.ruby.L1Cache_Controller.MM_W.Use_Timeout |       55472      3.38%      3.38% |      495380     30.16%     33.53% |     1069122     65.08%     98.62% |       22740      1.38%    100.00%
system.ruby.L1Cache_Controller.MM_W.Use_Timeout::total      1642714                      
system.ruby.L1Cache_Controller.IM.Ack    |        6829     39.88%     39.88% |        4023     23.49%     63.38% |        2915     17.02%     80.40% |        3356     19.60%    100.00%
system.ruby.L1Cache_Controller.IM.Ack::total        17123                      
system.ruby.L1Cache_Controller.IM.Exclusive_Data |       26562      2.97%      2.97% |      283095     31.66%     34.63% |      565237     63.22%     97.85% |       19246      2.15%    100.00%
system.ruby.L1Cache_Controller.IM.Exclusive_Data::total       894140                      
system.ruby.L1Cache_Controller.SM.Ack    |        6483     59.15%     59.15% |        1261     11.51%     70.66% |        1685     15.37%     86.03% |        1531     13.97%    100.00%
system.ruby.L1Cache_Controller.SM.Ack::total        10960                      
system.ruby.L1Cache_Controller.SM.Exclusive_Data |       27777      5.94%      5.94% |      123087     26.32%     32.26% |      314389     67.24%     99.50% |        2337      0.50%    100.00%
system.ruby.L1Cache_Controller.SM.Exclusive_Data::total       467590                      
system.ruby.L1Cache_Controller.OM.Own_GETX |          47     22.27%     22.27% |          28     13.27%     35.55% |         116     54.98%     90.52% |          20      9.48%    100.00%
system.ruby.L1Cache_Controller.OM.Own_GETX::total          211                      
system.ruby.L1Cache_Controller.OM.Ack    |         429     11.52%     11.52% |        1060     28.46%     39.97% |        1312     35.22%     75.19% |         924     24.81%    100.00%
system.ruby.L1Cache_Controller.OM.Ack::total         3725                      
system.ruby.L1Cache_Controller.OM.All_acks |       54386      3.99%      3.99% |      406210     29.83%     33.82% |      879742     64.59%     98.41% |       21603      1.59%    100.00%
system.ruby.L1Cache_Controller.OM.All_acks::total      1361941                      
system.ruby.L1Cache_Controller.IS.Data   |      126034      4.83%      4.83% |      754961     28.91%     33.74% |     1654314     63.35%     97.09% |       76051      2.91%    100.00%
system.ruby.L1Cache_Controller.IS.Data::total      2611360                      
system.ruby.L1Cache_Controller.IS.Exclusive_Data |       11398      2.14%      2.14% |      146454     27.45%     29.59% |      359615     67.41%     96.99% |       16039      3.01%    100.00%
system.ruby.L1Cache_Controller.IS.Exclusive_Data::total       533506                      
system.ruby.L1Cache_Controller.SI.Ifetch |           0      0.00%      0.00% |           6    100.00%    100.00% |           0      0.00%    100.00% |           0      0.00%    100.00%
system.ruby.L1Cache_Controller.SI.Ifetch::total            6                      
system.ruby.L1Cache_Controller.SI.Writeback_Ack |       71562      6.66%      6.66% |      330568     30.77%     37.43% |      612827     57.04%     94.47% |       59398      5.53%    100.00%
system.ruby.L1Cache_Controller.SI.Writeback_Ack::total      1074355                      
system.ruby.L1Cache_Controller.SI.Writeback_Ack_Data |       23357      2.21%      2.21% |      296721     28.10%     30.32% |      726118     68.77%     99.09% |        9624      0.91%    100.00%
system.ruby.L1Cache_Controller.SI.Writeback_Ack_Data::total      1055820                      
system.ruby.L1Cache_Controller.OI.Writeback_Ack_Data |         353     20.69%     20.69% |         400     23.45%     44.14% |         396     23.21%     67.35% |         557     32.65%    100.00%
system.ruby.L1Cache_Controller.OI.Writeback_Ack_Data::total         1706                      
system.ruby.L1Cache_Controller.MI.Writeback_Ack_Data |       56326      3.03%      3.03% |      545002     29.32%     32.35% |     1229953     66.16%     98.51% |       27759      1.49%    100.00%
system.ruby.L1Cache_Controller.MI.Writeback_Ack_Data::total      1859040                      
system.ruby.L2Cache_Controller.L1_GETS        3145945      0.00%      0.00%
system.ruby.L2Cache_Controller.L1_GETX        1361954      0.00%      0.00%
system.ruby.L2Cache_Controller.L1_PUTO           1706      0.00%      0.00%
system.ruby.L2Cache_Controller.L1_PUTX        1859040      0.00%      0.00%
system.ruby.L2Cache_Controller.L1_PUTS_only      1935309      0.00%      0.00%
system.ruby.L2Cache_Controller.L1_PUTS         194866      0.00%      0.00%
system.ruby.L2Cache_Controller.Fwd_DMA            537      0.00%      0.00%
system.ruby.L2Cache_Controller.All_Acks       1237813      0.00%      0.00%
system.ruby.L2Cache_Controller.Data           2716077      0.00%      0.00%
system.ruby.L2Cache_Controller.L1_WBCLEANDATA      1055820      0.00%      0.00%
system.ruby.L2Cache_Controller.L1_WBDIRTYDATA      1860746      0.00%      0.00%
system.ruby.L2Cache_Controller.Writeback_Ack      1231174      0.00%      0.00%
system.ruby.L2Cache_Controller.Unblock        3685715      0.00%      0.00%
system.ruby.L2Cache_Controller.Exclusive_Unblock      1895447      0.00%      0.00%
system.ruby.L2Cache_Controller.DmaAck             387      0.00%      0.00%
system.ruby.L2Cache_Controller.L2_Replacement      2248802      0.00%      0.00%
system.ruby.L2Cache_Controller.NP.L1_GETS      1478264      0.00%      0.00%
system.ruby.L2Cache_Controller.NP.L1_GETX       760701      0.00%      0.00%
system.ruby.L2Cache_Controller.ILS.L1_GETS        10756      0.00%      0.00%
system.ruby.L2Cache_Controller.ILS.L1_GETX       435419      0.00%      0.00%
system.ruby.L2Cache_Controller.ILS.L1_PUTS_only      1043626      0.00%      0.00%
system.ruby.L2Cache_Controller.ILS.L1_PUTS        12194      0.00%      0.00%
system.ruby.L2Cache_Controller.ILX.L1_GETS        28975      0.00%      0.00%
system.ruby.L2Cache_Controller.ILX.L1_GETX         6950      0.00%      0.00%
system.ruby.L2Cache_Controller.ILX.L1_PUTX      1859040      0.00%      0.00%
system.ruby.L2Cache_Controller.ILX.Fwd_DMA          387      0.00%      0.00%
system.ruby.L2Cache_Controller.ILOX.L1_GETS         2903      0.00%      0.00%
system.ruby.L2Cache_Controller.ILOX.L1_GETX         1700      0.00%      0.00%
system.ruby.L2Cache_Controller.ILOX.L1_PUTO         1110      0.00%      0.00%
system.ruby.L2Cache_Controller.ILOSX.L1_GETS         6405      0.00%      0.00%
system.ruby.L2Cache_Controller.ILOSX.L1_GETX        10487      0.00%      0.00%
system.ruby.L2Cache_Controller.ILOSX.L1_PUTO          596      0.00%      0.00%
system.ruby.L2Cache_Controller.ILOSX.L1_PUTS_only         5742      0.00%      0.00%
system.ruby.L2Cache_Controller.ILOSX.L1_PUTS          758      0.00%      0.00%
system.ruby.L2Cache_Controller.S.L1_GETS       914677      0.00%      0.00%
system.ruby.L2Cache_Controller.S.L1_GETX        14399      0.00%      0.00%
system.ruby.L2Cache_Controller.S.L2_Replacement      1004711      0.00%      0.00%
system.ruby.L2Cache_Controller.OLSX.L1_GETS         5074      0.00%      0.00%
system.ruby.L2Cache_Controller.OLSX.L1_GETX          178      0.00%      0.00%
system.ruby.L2Cache_Controller.OLSX.L1_PUTS_only          288      0.00%      0.00%
system.ruby.L2Cache_Controller.OLSX.L1_PUTS         4958      0.00%      0.00%
system.ruby.L2Cache_Controller.OLSX.L2_Replacement          183      0.00%      0.00%
system.ruby.L2Cache_Controller.SLS.L1_GETS       179560      0.00%      0.00%
system.ruby.L2Cache_Controller.SLS.L1_GETX        27294      0.00%      0.00%
system.ruby.L2Cache_Controller.SLS.L1_PUTS_only       885653      0.00%      0.00%
system.ruby.L2Cache_Controller.SLS.L1_PUTS       176956      0.00%      0.00%
system.ruby.L2Cache_Controller.SLS.L2_Replacement        12917      0.00%      0.00%
system.ruby.L2Cache_Controller.M.L1_GETS       518252      0.00%      0.00%
system.ruby.L2Cache_Controller.M.L1_GETX       104813      0.00%      0.00%
system.ruby.L2Cache_Controller.M.Fwd_DMA          150      0.00%      0.00%
system.ruby.L2Cache_Controller.M.L2_Replacement      1230991      0.00%      0.00%
system.ruby.L2Cache_Controller.ILOXW.L1_WBDIRTYDATA         1110      0.00%      0.00%
system.ruby.L2Cache_Controller.ILOXW.Unblock         5742      0.00%      0.00%
system.ruby.L2Cache_Controller.ILOSXW.L1_WBDIRTYDATA          596      0.00%      0.00%
system.ruby.L2Cache_Controller.ILOSXW.Unblock          758      0.00%      0.00%
system.ruby.L2Cache_Controller.SLSW.L1_GETS            2      0.00%      0.00%
system.ruby.L2Cache_Controller.SLSW.Unblock       176956      0.00%      0.00%
system.ruby.L2Cache_Controller.ILSW.L1_WBCLEANDATA        12194      0.00%      0.00%
system.ruby.L2Cache_Controller.IW.L1_WBCLEANDATA      1043626      0.00%      0.00%
system.ruby.L2Cache_Controller.SW.Unblock       885653      0.00%      0.00%
system.ruby.L2Cache_Controller.OXW.Unblock          288      0.00%      0.00%
system.ruby.L2Cache_Controller.OLSXW.Unblock         4958      0.00%      0.00%
system.ruby.L2Cache_Controller.ILXW.L1_WBDIRTYDATA      1859040      0.00%      0.00%
system.ruby.L2Cache_Controller.IFLS.Unblock        10756      0.00%      0.00%
system.ruby.L2Cache_Controller.IFLOX.Unblock         2903      0.00%      0.00%
system.ruby.L2Cache_Controller.IFLOX.Exclusive_Unblock          178      0.00%      0.00%
system.ruby.L2Cache_Controller.IFLOXX.L1_GETS           85      0.00%      0.00%
system.ruby.L2Cache_Controller.IFLOXX.L1_GETX           11      0.00%      0.00%
system.ruby.L2Cache_Controller.IFLOXX.Unblock        13721      0.00%      0.00%
system.ruby.L2Cache_Controller.IFLOXX.Exclusive_Unblock        23904      0.00%      0.00%
system.ruby.L2Cache_Controller.IFLOSX.Unblock         6405      0.00%      0.00%
system.ruby.L2Cache_Controller.IFLXO.L1_GETS           49      0.00%      0.00%
system.ruby.L2Cache_Controller.IFLXO.L1_GETX            2      0.00%      0.00%
system.ruby.L2Cache_Controller.IFLXO.Exclusive_Unblock        10487      0.00%      0.00%
system.ruby.L2Cache_Controller.IGS.L1_GETS          934      0.00%      0.00%
system.ruby.L2Cache_Controller.IGS.Data       1478264      0.00%      0.00%
system.ruby.L2Cache_Controller.IGS.Unblock      1478264      0.00%      0.00%
system.ruby.L2Cache_Controller.IGM.Data        775100      0.00%      0.00%
system.ruby.L2Cache_Controller.IGMLS.Data       462713      0.00%      0.00%
system.ruby.L2Cache_Controller.IGMO.All_Acks      1237813      0.00%      0.00%
system.ruby.L2Cache_Controller.IGMO.Exclusive_Unblock      1237813      0.00%      0.00%
system.ruby.L2Cache_Controller.MM.Exclusive_Unblock       104813      0.00%      0.00%
system.ruby.L2Cache_Controller.SS.L1_GETS            3      0.00%      0.00%
system.ruby.L2Cache_Controller.SS.Unblock       914677      0.00%      0.00%
system.ruby.L2Cache_Controller.OO.L1_GETS            1      0.00%      0.00%
system.ruby.L2Cache_Controller.OO.Exclusive_Unblock       518252      0.00%      0.00%
system.ruby.L2Cache_Controller.OLSXS.Unblock         5074      0.00%      0.00%
system.ruby.L2Cache_Controller.SLSS.L1_GETS            5      0.00%      0.00%
system.ruby.L2Cache_Controller.SLSS.Unblock       179560      0.00%      0.00%
system.ruby.L2Cache_Controller.MI.Writeback_Ack      1230991      0.00%      0.00%
system.ruby.L2Cache_Controller.OLSI.Writeback_Ack          183      0.00%      0.00%
system.ruby.L2Cache_Controller.ILXD.DmaAck          387      0.00%      0.00%

---------- End Simulation Statistics   ----------
