
---------- Begin Simulation Statistics ----------
sim_seconds                                  3.904786                       # Number of seconds simulated
sim_ticks                                3904785528500                       # Number of ticks simulated
final_tick                               57005706915001                       # Number of ticks from beginning of simulation (restored from checkpoints and never reset)
sim_freq                                 1000000000000                       # Frequency of simulated ticks
host_inst_rate                                 144771                       # Simulator instruction rate (inst/s)
host_op_rate                                   202963                       # Simulator op (including micro ops) rate (op/s)
host_tick_rate                              251178868                       # Simulator tick rate (ticks/s)
host_mem_usage                                1821832                       # Number of bytes of host memory used
host_seconds                                 15545.84                       # Real time elapsed on the host
sim_insts                                  2250590370                       # Number of instructions simulated
sim_ops                                    3155236933                       # Number of ops (including micro ops) simulated
system.voltage_domain.voltage                       1                       # Voltage in Volts
system.clk_domain.clock                          1000                       # Clock period in ticks
system.mem_ctrls.bytes_read::ruby.dir_cntrl0     91142720                       # Number of bytes read from this memory
system.mem_ctrls.bytes_read::total           91142720                       # Number of bytes read from this memory
system.mem_ctrls.bytes_written::ruby.dir_cntrl0     49763520                       # Number of bytes written to this memory
system.mem_ctrls.bytes_written::total        49763520                       # Number of bytes written to this memory
system.mem_ctrls.num_reads::ruby.dir_cntrl0      1424105                       # Number of read requests responded to by this memory
system.mem_ctrls.num_reads::total             1424105                       # Number of read requests responded to by this memory
system.mem_ctrls.num_writes::ruby.dir_cntrl0       777555                       # Number of write requests responded to by this memory
system.mem_ctrls.num_writes::total             777555                       # Number of write requests responded to by this memory
system.mem_ctrls.bw_read::ruby.dir_cntrl0     23341287                       # Total read bandwidth from this memory (bytes/s)
system.mem_ctrls.bw_read::total              23341287                       # Total read bandwidth from this memory (bytes/s)
system.mem_ctrls.bw_write::ruby.dir_cntrl0     12744239                       # Write bandwidth from this memory (bytes/s)
system.mem_ctrls.bw_write::total             12744239                       # Write bandwidth from this memory (bytes/s)
system.mem_ctrls.bw_total::ruby.dir_cntrl0     36085526                       # Total bandwidth to/from this memory (bytes/s)
system.mem_ctrls.bw_total::total             36085526                       # Total bandwidth to/from this memory (bytes/s)
system.mem_ctrls.readReqs                     1424105                       # Number of read requests accepted
system.mem_ctrls.writeReqs                     777555                       # Number of write requests accepted
system.mem_ctrls.readBursts                   1424105                       # Number of DRAM read bursts, including those serviced by the write queue
system.mem_ctrls.writeBursts                   777555                       # Number of DRAM write bursts, including those merged in the write queue
system.mem_ctrls.bytesReadDRAM               90866240                       # Total number of bytes read from DRAM
system.mem_ctrls.bytesReadWrQ                  276480                       # Total number of bytes read from write queue
system.mem_ctrls.bytesWritten                49761920                       # Total number of bytes written to DRAM
system.mem_ctrls.bytesReadSys                91142720                       # Total read bytes from the system interface side
system.mem_ctrls.bytesWrittenSys             49763520                       # Total written bytes from the system interface side
system.mem_ctrls.servicedByWrQ                   4320                       # Number of DRAM read bursts serviced by the write queue
system.mem_ctrls.mergedWrBursts                     0                       # Number of DRAM write bursts merged with an existing one
system.mem_ctrls.neitherReadNorWriteReqs            0                       # Number of requests that are neither read nor write
system.mem_ctrls.perBankRdBursts::0             88937                       # Per bank write bursts
system.mem_ctrls.perBankRdBursts::1             88009                       # Per bank write bursts
system.mem_ctrls.perBankRdBursts::2             85255                       # Per bank write bursts
system.mem_ctrls.perBankRdBursts::3             82912                       # Per bank write bursts
system.mem_ctrls.perBankRdBursts::4             87166                       # Per bank write bursts
system.mem_ctrls.perBankRdBursts::5             82669                       # Per bank write bursts
system.mem_ctrls.perBankRdBursts::6             88616                       # Per bank write bursts
system.mem_ctrls.perBankRdBursts::7             88800                       # Per bank write bursts
system.mem_ctrls.perBankRdBursts::8             95764                       # Per bank write bursts
system.mem_ctrls.perBankRdBursts::9             94839                       # Per bank write bursts
system.mem_ctrls.perBankRdBursts::10            98080                       # Per bank write bursts
system.mem_ctrls.perBankRdBursts::11            93221                       # Per bank write bursts
system.mem_ctrls.perBankRdBursts::12            86463                       # Per bank write bursts
system.mem_ctrls.perBankRdBursts::13            86249                       # Per bank write bursts
system.mem_ctrls.perBankRdBursts::14            87552                       # Per bank write bursts
system.mem_ctrls.perBankRdBursts::15            85253                       # Per bank write bursts
system.mem_ctrls.perBankWrBursts::0             48487                       # Per bank write bursts
system.mem_ctrls.perBankWrBursts::1             48121                       # Per bank write bursts
system.mem_ctrls.perBankWrBursts::2             47395                       # Per bank write bursts
system.mem_ctrls.perBankWrBursts::3             44942                       # Per bank write bursts
system.mem_ctrls.perBankWrBursts::4             47173                       # Per bank write bursts
system.mem_ctrls.perBankWrBursts::5             45663                       # Per bank write bursts
system.mem_ctrls.perBankWrBursts::6             48390                       # Per bank write bursts
system.mem_ctrls.perBankWrBursts::7             48046                       # Per bank write bursts
system.mem_ctrls.perBankWrBursts::8             52161                       # Per bank write bursts
system.mem_ctrls.perBankWrBursts::9             51603                       # Per bank write bursts
system.mem_ctrls.perBankWrBursts::10            52784                       # Per bank write bursts
system.mem_ctrls.perBankWrBursts::11            51995                       # Per bank write bursts
system.mem_ctrls.perBankWrBursts::12            48170                       # Per bank write bursts
system.mem_ctrls.perBankWrBursts::13            47755                       # Per bank write bursts
system.mem_ctrls.perBankWrBursts::14            47820                       # Per bank write bursts
system.mem_ctrls.perBankWrBursts::15            47025                       # Per bank write bursts
system.mem_ctrls.numRdRetry                         0                       # Number of times read queue was full causing retry
system.mem_ctrls.numWrRetry                         0                       # Number of times write queue was full causing retry
system.mem_ctrls.totGap                  3904785544500                       # Total gap between requests
system.mem_ctrls.readPktSize::0                     0                       # Read request sizes (log2)
system.mem_ctrls.readPktSize::1                     0                       # Read request sizes (log2)
system.mem_ctrls.readPktSize::2                     0                       # Read request sizes (log2)
system.mem_ctrls.readPktSize::3                     0                       # Read request sizes (log2)
system.mem_ctrls.readPktSize::4                     0                       # Read request sizes (log2)
system.mem_ctrls.readPktSize::5                     0                       # Read request sizes (log2)
system.mem_ctrls.readPktSize::6               1424105                       # Read request sizes (log2)
system.mem_ctrls.writePktSize::0                    0                       # Write request sizes (log2)
system.mem_ctrls.writePktSize::1                    0                       # Write request sizes (log2)
system.mem_ctrls.writePktSize::2                    0                       # Write request sizes (log2)
system.mem_ctrls.writePktSize::3                    0                       # Write request sizes (log2)
system.mem_ctrls.writePktSize::4                    0                       # Write request sizes (log2)
system.mem_ctrls.writePktSize::5                    0                       # Write request sizes (log2)
system.mem_ctrls.writePktSize::6               777555                       # Write request sizes (log2)
system.mem_ctrls.rdQLenPdf::0                 1419115                       # What read queue length does an incoming req see
system.mem_ctrls.rdQLenPdf::1                     669                       # What read queue length does an incoming req see
system.mem_ctrls.rdQLenPdf::2                       1                       # What read queue length does an incoming req see
system.mem_ctrls.rdQLenPdf::3                       0                       # What read queue length does an incoming req see
system.mem_ctrls.rdQLenPdf::4                       0                       # What read queue length does an incoming req see
system.mem_ctrls.rdQLenPdf::5                       0                       # What read queue length does an incoming req see
system.mem_ctrls.rdQLenPdf::6                       0                       # What read queue length does an incoming req see
system.mem_ctrls.rdQLenPdf::7                       0                       # What read queue length does an incoming req see
system.mem_ctrls.rdQLenPdf::8                       0                       # What read queue length does an incoming req see
system.mem_ctrls.rdQLenPdf::9                       0                       # What read queue length does an incoming req see
system.mem_ctrls.rdQLenPdf::10                      0                       # What read queue length does an incoming req see
system.mem_ctrls.rdQLenPdf::11                      0                       # What read queue length does an incoming req see
system.mem_ctrls.rdQLenPdf::12                      0                       # What read queue length does an incoming req see
system.mem_ctrls.rdQLenPdf::13                      0                       # What read queue length does an incoming req see
system.mem_ctrls.rdQLenPdf::14                      0                       # What read queue length does an incoming req see
system.mem_ctrls.rdQLenPdf::15                      0                       # What read queue length does an incoming req see
system.mem_ctrls.rdQLenPdf::16                      0                       # What read queue length does an incoming req see
system.mem_ctrls.rdQLenPdf::17                      0                       # What read queue length does an incoming req see
system.mem_ctrls.rdQLenPdf::18                      0                       # What read queue length does an incoming req see
system.mem_ctrls.rdQLenPdf::19                      0                       # What read queue length does an incoming req see
system.mem_ctrls.rdQLenPdf::20                      0                       # What read queue length does an incoming req see
system.mem_ctrls.rdQLenPdf::21                      0                       # What read queue length does an incoming req see
system.mem_ctrls.rdQLenPdf::22                      0                       # What read queue length does an incoming req see
system.mem_ctrls.rdQLenPdf::23                      0                       # What read queue length does an incoming req see
system.mem_ctrls.rdQLenPdf::24                      0                       # What read queue length does an incoming req see
system.mem_ctrls.rdQLenPdf::25                      0                       # What read queue length does an incoming req see
system.mem_ctrls.rdQLenPdf::26                      0                       # What read queue length does an incoming req see
system.mem_ctrls.rdQLenPdf::27                      0                       # What read queue length does an incoming req see
system.mem_ctrls.rdQLenPdf::28                      0                       # What read queue length does an incoming req see
system.mem_ctrls.rdQLenPdf::29                      0                       # What read queue length does an incoming req see
system.mem_ctrls.rdQLenPdf::30                      0                       # What read queue length does an incoming req see
system.mem_ctrls.rdQLenPdf::31                      0                       # What read queue length does an incoming req see
system.mem_ctrls.wrQLenPdf::0                       0                       # What write queue length does an incoming req see
system.mem_ctrls.wrQLenPdf::1                       0                       # What write queue length does an incoming req see
system.mem_ctrls.wrQLenPdf::2                       0                       # What write queue length does an incoming req see
system.mem_ctrls.wrQLenPdf::3                       1                       # What write queue length does an incoming req see
system.mem_ctrls.wrQLenPdf::4                       1                       # What write queue length does an incoming req see
system.mem_ctrls.wrQLenPdf::5                       1                       # What write queue length does an incoming req see
system.mem_ctrls.wrQLenPdf::6                       1                       # What write queue length does an incoming req see
system.mem_ctrls.wrQLenPdf::7                       1                       # What write queue length does an incoming req see
system.mem_ctrls.wrQLenPdf::8                       1                       # What write queue length does an incoming req see
system.mem_ctrls.wrQLenPdf::9                       1                       # What write queue length does an incoming req see
system.mem_ctrls.wrQLenPdf::10                      1                       # What write queue length does an incoming req see
system.mem_ctrls.wrQLenPdf::11                      1                       # What write queue length does an incoming req see
system.mem_ctrls.wrQLenPdf::12                      1                       # What write queue length does an incoming req see
system.mem_ctrls.wrQLenPdf::13                      1                       # What write queue length does an incoming req see
system.mem_ctrls.wrQLenPdf::14                      1                       # What write queue length does an incoming req see
system.mem_ctrls.wrQLenPdf::15                  26617                       # What write queue length does an incoming req see
system.mem_ctrls.wrQLenPdf::16                  28309                       # What write queue length does an incoming req see
system.mem_ctrls.wrQLenPdf::17                  38518                       # What write queue length does an incoming req see
system.mem_ctrls.wrQLenPdf::18                  45959                       # What write queue length does an incoming req see
system.mem_ctrls.wrQLenPdf::19                  46309                       # What write queue length does an incoming req see
system.mem_ctrls.wrQLenPdf::20                  46574                       # What write queue length does an incoming req see
system.mem_ctrls.wrQLenPdf::21                  46231                       # What write queue length does an incoming req see
system.mem_ctrls.wrQLenPdf::22                  45744                       # What write queue length does an incoming req see
system.mem_ctrls.wrQLenPdf::23                  45561                       # What write queue length does an incoming req see
system.mem_ctrls.wrQLenPdf::24                  45517                       # What write queue length does an incoming req see
system.mem_ctrls.wrQLenPdf::25                  45443                       # What write queue length does an incoming req see
system.mem_ctrls.wrQLenPdf::26                  45375                       # What write queue length does an incoming req see
system.mem_ctrls.wrQLenPdf::27                  45489                       # What write queue length does an incoming req see
system.mem_ctrls.wrQLenPdf::28                  45324                       # What write queue length does an incoming req see
system.mem_ctrls.wrQLenPdf::29                  45468                       # What write queue length does an incoming req see
system.mem_ctrls.wrQLenPdf::30                  44949                       # What write queue length does an incoming req see
system.mem_ctrls.wrQLenPdf::31                  44917                       # What write queue length does an incoming req see
system.mem_ctrls.wrQLenPdf::32                  45031                       # What write queue length does an incoming req see
system.mem_ctrls.wrQLenPdf::33                    150                       # What write queue length does an incoming req see
system.mem_ctrls.wrQLenPdf::34                     37                       # What write queue length does an incoming req see
system.mem_ctrls.wrQLenPdf::35                     12                       # What write queue length does an incoming req see
system.mem_ctrls.wrQLenPdf::36                      6                       # What write queue length does an incoming req see
system.mem_ctrls.wrQLenPdf::37                      2                       # What write queue length does an incoming req see
system.mem_ctrls.wrQLenPdf::38                      1                       # What write queue length does an incoming req see
system.mem_ctrls.wrQLenPdf::39                      0                       # What write queue length does an incoming req see
system.mem_ctrls.wrQLenPdf::40                      0                       # What write queue length does an incoming req see
system.mem_ctrls.wrQLenPdf::41                      0                       # What write queue length does an incoming req see
system.mem_ctrls.wrQLenPdf::42                      0                       # What write queue length does an incoming req see
system.mem_ctrls.wrQLenPdf::43                      0                       # What write queue length does an incoming req see
system.mem_ctrls.wrQLenPdf::44                      0                       # What write queue length does an incoming req see
system.mem_ctrls.wrQLenPdf::45                      0                       # What write queue length does an incoming req see
system.mem_ctrls.wrQLenPdf::46                      0                       # What write queue length does an incoming req see
system.mem_ctrls.wrQLenPdf::47                      0                       # What write queue length does an incoming req see
system.mem_ctrls.wrQLenPdf::48                      0                       # What write queue length does an incoming req see
system.mem_ctrls.wrQLenPdf::49                      0                       # What write queue length does an incoming req see
system.mem_ctrls.wrQLenPdf::50                      0                       # What write queue length does an incoming req see
system.mem_ctrls.wrQLenPdf::51                      0                       # What write queue length does an incoming req see
system.mem_ctrls.wrQLenPdf::52                      0                       # What write queue length does an incoming req see
system.mem_ctrls.wrQLenPdf::53                      0                       # What write queue length does an incoming req see
system.mem_ctrls.wrQLenPdf::54                      0                       # What write queue length does an incoming req see
system.mem_ctrls.wrQLenPdf::55                      0                       # What write queue length does an incoming req see
system.mem_ctrls.wrQLenPdf::56                      0                       # What write queue length does an incoming req see
system.mem_ctrls.wrQLenPdf::57                      0                       # What write queue length does an incoming req see
system.mem_ctrls.wrQLenPdf::58                      0                       # What write queue length does an incoming req see
system.mem_ctrls.wrQLenPdf::59                      0                       # What write queue length does an incoming req see
system.mem_ctrls.wrQLenPdf::60                      0                       # What write queue length does an incoming req see
system.mem_ctrls.wrQLenPdf::61                      0                       # What write queue length does an incoming req see
system.mem_ctrls.wrQLenPdf::62                      0                       # What write queue length does an incoming req see
system.mem_ctrls.wrQLenPdf::63                      0                       # What write queue length does an incoming req see
system.mem_ctrls.bytesPerActivate::samples      1270307                       # Bytes accessed per row activation
system.mem_ctrls.bytesPerActivate::mean    110.703268                       # Bytes accessed per row activation
system.mem_ctrls.bytesPerActivate::gmean    84.511754                       # Bytes accessed per row activation
system.mem_ctrls.bytesPerActivate::stdev   143.843800                       # Bytes accessed per row activation
system.mem_ctrls.bytesPerActivate::0-127       942470     74.19%     74.19% # Bytes accessed per row activation
system.mem_ctrls.bytesPerActivate::128-255       247701     19.50%     93.69% # Bytes accessed per row activation
system.mem_ctrls.bytesPerActivate::256-383        26396      2.08%     95.77% # Bytes accessed per row activation
system.mem_ctrls.bytesPerActivate::384-511        11952      0.94%     96.71% # Bytes accessed per row activation
system.mem_ctrls.bytesPerActivate::512-639         8945      0.70%     97.41% # Bytes accessed per row activation
system.mem_ctrls.bytesPerActivate::640-767         9157      0.72%     98.14% # Bytes accessed per row activation
system.mem_ctrls.bytesPerActivate::768-895         4883      0.38%     98.52% # Bytes accessed per row activation
system.mem_ctrls.bytesPerActivate::896-1023         2435      0.19%     98.71% # Bytes accessed per row activation
system.mem_ctrls.bytesPerActivate::1024-1151        16368      1.29%    100.00% # Bytes accessed per row activation
system.mem_ctrls.bytesPerActivate::total      1270307                       # Bytes accessed per row activation
system.mem_ctrls.rdPerTurnAround::samples        44904                       # Reads before turning the bus around for writes
system.mem_ctrls.rdPerTurnAround::mean      31.965170                       # Reads before turning the bus around for writes
system.mem_ctrls.rdPerTurnAround::stdev    125.049579                       # Reads before turning the bus around for writes
system.mem_ctrls.rdPerTurnAround::0-1023        44898     99.99%     99.99% # Reads before turning the bus around for writes
system.mem_ctrls.rdPerTurnAround::1024-2047            4      0.01%    100.00% # Reads before turning the bus around for writes
system.mem_ctrls.rdPerTurnAround::2048-3071            1      0.00%    100.00% # Reads before turning the bus around for writes
system.mem_ctrls.rdPerTurnAround::25600-26623            1      0.00%    100.00% # Reads before turning the bus around for writes
system.mem_ctrls.rdPerTurnAround::total         44904                       # Reads before turning the bus around for writes
system.mem_ctrls.wrPerTurnAround::samples        44904                       # Writes before turning the bus around for reads
system.mem_ctrls.wrPerTurnAround::mean      17.315384                       # Writes before turning the bus around for reads
system.mem_ctrls.wrPerTurnAround::gmean     17.280661                       # Writes before turning the bus around for reads
system.mem_ctrls.wrPerTurnAround::stdev      1.097252                       # Writes before turning the bus around for reads
system.mem_ctrls.wrPerTurnAround::16            16765     37.34%     37.34% # Writes before turning the bus around for reads
system.mem_ctrls.wrPerTurnAround::17             1227      2.73%     40.07% # Writes before turning the bus around for reads
system.mem_ctrls.wrPerTurnAround::18            23785     52.97%     93.04% # Writes before turning the bus around for reads
system.mem_ctrls.wrPerTurnAround::19             2530      5.63%     98.67% # Writes before turning the bus around for reads
system.mem_ctrls.wrPerTurnAround::20              428      0.95%     99.62% # Writes before turning the bus around for reads
system.mem_ctrls.wrPerTurnAround::21              104      0.23%     99.86% # Writes before turning the bus around for reads
system.mem_ctrls.wrPerTurnAround::22               33      0.07%     99.93% # Writes before turning the bus around for reads
system.mem_ctrls.wrPerTurnAround::23               17      0.04%     99.97% # Writes before turning the bus around for reads
system.mem_ctrls.wrPerTurnAround::24                9      0.02%     99.99% # Writes before turning the bus around for reads
system.mem_ctrls.wrPerTurnAround::25                5      0.01%    100.00% # Writes before turning the bus around for reads
system.mem_ctrls.wrPerTurnAround::29                1      0.00%    100.00% # Writes before turning the bus around for reads
system.mem_ctrls.wrPerTurnAround::total         44904                       # Writes before turning the bus around for reads
system.mem_ctrls.totQLat                  17979934490                       # Total ticks spent queuing
system.mem_ctrls.totMemAccLat             44600903240                       # Total ticks spent from burst creation until serviced by the DRAM
system.mem_ctrls.totBusLat                 7098925000                       # Total ticks spent in databus transfers
system.mem_ctrls.avgQLat                     12663.84                       # Average queueing delay per DRAM burst
system.mem_ctrls.avgBusLat                    5000.00                       # Average bus latency per DRAM burst
system.mem_ctrls.avgMemAccLat                31413.84                       # Average memory access latency per DRAM burst
system.mem_ctrls.avgRdBW                        23.27                       # Average DRAM read bandwidth in MiByte/s
system.mem_ctrls.avgWrBW                        12.74                       # Average achieved write bandwidth in MiByte/s
system.mem_ctrls.avgRdBWSys                     23.34                       # Average system read bandwidth in MiByte/s
system.mem_ctrls.avgWrBWSys                     12.74                       # Average system write bandwidth in MiByte/s
system.mem_ctrls.peakBW                      12800.00                       # Theoretical peak bandwidth in MiByte/s
system.mem_ctrls.busUtil                         0.28                       # Data bus utilization in percentage
system.mem_ctrls.busUtilRead                     0.18                       # Data bus utilization in percentage for reads
system.mem_ctrls.busUtilWrite                    0.10                       # Data bus utilization in percentage for writes
system.mem_ctrls.avgRdQLen                       1.00                       # Average read queue length when enqueuing
system.mem_ctrls.avgWrQLen                      24.61                       # Average write queue length when enqueuing
system.mem_ctrls.readRowHits                   752061                       # Number of row buffer hits during reads
system.mem_ctrls.writeRowHits                  174937                       # Number of row buffer hits during writes
system.mem_ctrls.readRowHitRate                 52.97                       # Row buffer hit rate for reads
system.mem_ctrls.writeRowHitRate                22.50                       # Row buffer hit rate for writes
system.mem_ctrls.avgGap                    1773564.29                       # Average gap between requests
system.mem_ctrls.pageHitRate                    42.19                       # Row buffer hit rate, read and write combined
system.mem_ctrls_0.actEnergy               4660588800                       # Energy for activate commands per rank (pJ)
system.mem_ctrls_0.preEnergy               2542980000                       # Energy for precharge commands per rank (pJ)
system.mem_ctrls_0.readEnergy              5466661200                       # Energy for read commands per rank (pJ)
system.mem_ctrls_0.writeEnergy             2450794320                       # Energy for write commands per rank (pJ)
system.mem_ctrls_0.refreshEnergy         255263555040                       # Energy for refresh commands per rank (pJ)
system.mem_ctrls_0.actBackEnergy         448024341690                       # Energy for active background per rank (pJ)
system.mem_ctrls_0.preBackEnergy         1951906512000                       # Energy for precharge background per rank (pJ)
system.mem_ctrls_0.totalEnergy           2670315433050                       # Total energy per rank (pJ)
system.mem_ctrls_0.averagePower            683.262488                       # Core power per rank (mW)
system.mem_ctrls_0.memoryStateTime::IDLE 3243343330750                       # Time in different power states
system.mem_ctrls_0.memoryStateTime::REF  130389220000                       # Time in different power states
system.mem_ctrls_0.memoryStateTime::PRE_PDN            0                       # Time in different power states
system.mem_ctrls_0.memoryStateTime::ACT  531048078250                       # Time in different power states
system.mem_ctrls_0.memoryStateTime::ACT_PDN            0                       # Time in different power states
system.mem_ctrls_1.actEnergy               4971622320                       # Energy for activate commands per rank (pJ)
system.mem_ctrls_1.preEnergy               2712690750                       # Energy for precharge commands per rank (pJ)
system.mem_ctrls_1.readEnergy              5729178000                       # Energy for read commands per rank (pJ)
system.mem_ctrls_1.writeEnergy             2587483440                       # Energy for write commands per rank (pJ)
system.mem_ctrls_1.refreshEnergy         255263555040                       # Energy for refresh commands per rank (pJ)
system.mem_ctrls_1.actBackEnergy         458622825930                       # Energy for active background per rank (pJ)
system.mem_ctrls_1.preBackEnergy         1942609596000                       # Energy for precharge background per rank (pJ)
system.mem_ctrls_1.totalEnergy           2672496951480                       # Total energy per rank (pJ)
system.mem_ctrls_1.averagePower            683.820680                       # Core power per rank (mW)
system.mem_ctrls_1.memoryStateTime::IDLE 3227922803500                       # Time in different power states
system.mem_ctrls_1.memoryStateTime::REF  130389220000                       # Time in different power states
system.mem_ctrls_1.memoryStateTime::PRE_PDN            0                       # Time in different power states
system.mem_ctrls_1.memoryStateTime::ACT  546469381000                       # Time in different power states
system.mem_ctrls_1.memoryStateTime::ACT_PDN            0                       # Time in different power states
system.cpu_voltage_domain.voltage                   1                       # Voltage in Volts
system.cpu_clk_domain.clock                       500                       # Clock period in ticks
system.cpu0.apic_clk_domain.clock                8000                       # Clock period in ticks
system.cpu0.numCycles                      7810793522                       # number of cpu cycles simulated
system.cpu0.numWorkItemsStarted                     0                       # number of work items this cpu started
system.cpu0.numWorkItemsCompleted                   0                       # number of work items this cpu completed
system.cpu0.kern.inst.arm                           0                       # number of arm instructions executed
system.cpu0.kern.inst.quiesce                       0                       # number of quiesce instructions executed
system.cpu0.committedInsts                    3227668                       # Number of instructions committed
system.cpu0.committedOps                      7019522                       # Number of ops (including micro ops) committed
system.cpu0.num_int_alu_accesses              6867519                       # Number of integer alu accesses
system.cpu0.num_fp_alu_accesses                    39                       # Number of float alu accesses
system.cpu0.num_func_calls                     205742                       # number of times a function call or return occured
system.cpu0.num_conditional_control_insts       469504                       # number of instructions that are conditional controls
system.cpu0.num_int_insts                     6867519                       # number of integer instructions
system.cpu0.num_fp_insts                           39                       # number of float instructions
system.cpu0.num_int_register_reads           13950920                       # number of times the integer registers were read
system.cpu0.num_int_register_writes           5690025                       # number of times the integer registers were written
system.cpu0.num_fp_register_reads                  63                       # number of times the floating registers were read
system.cpu0.num_fp_register_writes                 31                       # number of times the floating registers were written
system.cpu0.num_cc_register_reads             3903066                       # number of times the CC registers were read
system.cpu0.num_cc_register_writes            2105792                       # number of times the CC registers were written
system.cpu0.num_mem_refs                      1651827                       # number of memory refs
system.cpu0.num_load_insts                    1019129                       # Number of load instructions
system.cpu0.num_store_insts                    632698                       # Number of store instructions
system.cpu0.num_idle_cycles              7797079636.643834                       # Number of idle cycles
system.cpu0.num_busy_cycles              13713885.356166                       # Number of busy cycles
system.cpu0.not_idle_fraction                0.001756                       # Percentage of non-idle cycles
system.cpu0.idle_fraction                    0.998244                       # Percentage of idle cycles
system.cpu0.Branches                           738098                       # Number of branches fetched
system.cpu0.op_class::No_OpClass               122946      1.75%      1.75% # Class of executed instruction
system.cpu0.op_class::IntAlu                  5190160     73.94%     75.69% # Class of executed instruction
system.cpu0.op_class::IntMult                   13122      0.19%     75.88% # Class of executed instruction
system.cpu0.op_class::IntDiv                    41460      0.59%     76.47% # Class of executed instruction
system.cpu0.op_class::FloatAdd                     30      0.00%     76.47% # Class of executed instruction
system.cpu0.op_class::FloatCmp                      0      0.00%     76.47% # Class of executed instruction
system.cpu0.op_class::FloatCvt                      0      0.00%     76.47% # Class of executed instruction
system.cpu0.op_class::FloatMult                     0      0.00%     76.47% # Class of executed instruction
system.cpu0.op_class::FloatDiv                      0      0.00%     76.47% # Class of executed instruction
system.cpu0.op_class::FloatSqrt                     0      0.00%     76.47% # Class of executed instruction
system.cpu0.op_class::SimdAdd                       0      0.00%     76.47% # Class of executed instruction
system.cpu0.op_class::SimdAddAcc                    0      0.00%     76.47% # Class of executed instruction
system.cpu0.op_class::SimdAlu                       0      0.00%     76.47% # Class of executed instruction
system.cpu0.op_class::SimdCmp                       0      0.00%     76.47% # Class of executed instruction
system.cpu0.op_class::SimdCvt                       0      0.00%     76.47% # Class of executed instruction
system.cpu0.op_class::SimdMisc                      0      0.00%     76.47% # Class of executed instruction
system.cpu0.op_class::SimdMult                      0      0.00%     76.47% # Class of executed instruction
system.cpu0.op_class::SimdMultAcc                   0      0.00%     76.47% # Class of executed instruction
system.cpu0.op_class::SimdShift                     0      0.00%     76.47% # Class of executed instruction
system.cpu0.op_class::SimdShiftAcc                  0      0.00%     76.47% # Class of executed instruction
system.cpu0.op_class::SimdSqrt                      0      0.00%     76.47% # Class of executed instruction
system.cpu0.op_class::SimdFloatAdd                  0      0.00%     76.47% # Class of executed instruction
system.cpu0.op_class::SimdFloatAlu                  0      0.00%     76.47% # Class of executed instruction
system.cpu0.op_class::SimdFloatCmp                  0      0.00%     76.47% # Class of executed instruction
system.cpu0.op_class::SimdFloatCvt                  0      0.00%     76.47% # Class of executed instruction
system.cpu0.op_class::SimdFloatDiv                  0      0.00%     76.47% # Class of executed instruction
system.cpu0.op_class::SimdFloatMisc                 0      0.00%     76.47% # Class of executed instruction
system.cpu0.op_class::SimdFloatMult                 0      0.00%     76.47% # Class of executed instruction
system.cpu0.op_class::SimdFloatMultAcc              0      0.00%     76.47% # Class of executed instruction
system.cpu0.op_class::SimdFloatSqrt                 0      0.00%     76.47% # Class of executed instruction
system.cpu0.op_class::MemRead                 1019129     14.52%     90.99% # Class of executed instruction
system.cpu0.op_class::MemWrite                 632698      9.01%    100.00% # Class of executed instruction
system.cpu0.op_class::IprAccess                     0      0.00%    100.00% # Class of executed instruction
system.cpu0.op_class::InstPrefetch                  0      0.00%    100.00% # Class of executed instruction
system.cpu0.op_class::total                   7019545                       # Class of executed instruction
system.cpu1.apic_clk_domain.clock                8000                       # Clock period in ticks
system.cpu1.numCycles                      7811538254                       # number of cpu cycles simulated
system.cpu1.numWorkItemsStarted                     0                       # number of work items this cpu started
system.cpu1.numWorkItemsCompleted                   0                       # number of work items this cpu completed
system.cpu1.kern.inst.arm                           0                       # number of arm instructions executed
system.cpu1.kern.inst.quiesce                       0                       # number of quiesce instructions executed
system.cpu1.committedInsts                 2239511816                       # Number of instructions committed
system.cpu1.committedOps                   3131975242                       # Number of ops (including micro ops) committed
system.cpu1.num_int_alu_accesses           1365018639                       # Number of integer alu accesses
system.cpu1.num_fp_alu_accesses            2127680381                       # Number of float alu accesses
system.cpu1.num_func_calls                    4837206                       # number of times a function call or return occured
system.cpu1.num_conditional_control_insts    125346304                       # number of instructions that are conditional controls
system.cpu1.num_int_insts                  1365018639                       # number of integer instructions
system.cpu1.num_fp_insts                   2127680381                       # number of float instructions
system.cpu1.num_int_register_reads         2745565080                       # number of times the integer registers were read
system.cpu1.num_int_register_writes         828490519                       # number of times the integer registers were written
system.cpu1.num_fp_register_reads          4601234203                       # number of times the floating registers were read
system.cpu1.num_fp_register_writes         2077617929                       # number of times the floating registers were written
system.cpu1.num_cc_register_reads           735914657                       # number of times the CC registers were read
system.cpu1.num_cc_register_writes          430151586                       # number of times the CC registers were written
system.cpu1.num_mem_refs                    408345092                       # number of memory refs
system.cpu1.num_load_insts                  353618429                       # Number of load instructions
system.cpu1.num_store_insts                  54726663                       # Number of store instructions
system.cpu1.num_idle_cycles              4121749.987438                       # Number of idle cycles
system.cpu1.num_busy_cycles              7807416504.012562                       # Number of busy cycles
system.cpu1.not_idle_fraction                0.999472                       # Percentage of non-idle cycles
system.cpu1.idle_fraction                    0.000528                       # Percentage of idle cycles
system.cpu1.Branches                        163312650                       # Number of branches fetched
system.cpu1.op_class::No_OpClass              2281790      0.07%      0.07% # Class of executed instruction
system.cpu1.op_class::IntAlu               1676680457     53.53%     53.61% # Class of executed instruction
system.cpu1.op_class::IntMult                   81811      0.00%     53.61% # Class of executed instruction
system.cpu1.op_class::IntDiv                    99014      0.00%     53.61% # Class of executed instruction
system.cpu1.op_class::FloatAdd             1044495742     33.35%     86.96% # Class of executed instruction
system.cpu1.op_class::FloatCmp                      0      0.00%     86.96% # Class of executed instruction
system.cpu1.op_class::FloatCvt                      0      0.00%     86.96% # Class of executed instruction
system.cpu1.op_class::FloatMult                     0      0.00%     86.96% # Class of executed instruction
system.cpu1.op_class::FloatDiv                      0      0.00%     86.96% # Class of executed instruction
system.cpu1.op_class::FloatSqrt                     0      0.00%     86.96% # Class of executed instruction
system.cpu1.op_class::SimdAdd                       0      0.00%     86.96% # Class of executed instruction
system.cpu1.op_class::SimdAddAcc                    0      0.00%     86.96% # Class of executed instruction
system.cpu1.op_class::SimdAlu                       0      0.00%     86.96% # Class of executed instruction
system.cpu1.op_class::SimdCmp                       0      0.00%     86.96% # Class of executed instruction
system.cpu1.op_class::SimdCvt                       0      0.00%     86.96% # Class of executed instruction
system.cpu1.op_class::SimdMisc                      0      0.00%     86.96% # Class of executed instruction
system.cpu1.op_class::SimdMult                      0      0.00%     86.96% # Class of executed instruction
system.cpu1.op_class::SimdMultAcc                   0      0.00%     86.96% # Class of executed instruction
system.cpu1.op_class::SimdShift                     0      0.00%     86.96% # Class of executed instruction
system.cpu1.op_class::SimdShiftAcc                  0      0.00%     86.96% # Class of executed instruction
system.cpu1.op_class::SimdSqrt                      0      0.00%     86.96% # Class of executed instruction
system.cpu1.op_class::SimdFloatAdd                  0      0.00%     86.96% # Class of executed instruction
system.cpu1.op_class::SimdFloatAlu                  0      0.00%     86.96% # Class of executed instruction
system.cpu1.op_class::SimdFloatCmp                  0      0.00%     86.96% # Class of executed instruction
system.cpu1.op_class::SimdFloatCvt                  0      0.00%     86.96% # Class of executed instruction
system.cpu1.op_class::SimdFloatDiv                  0      0.00%     86.96% # Class of executed instruction
system.cpu1.op_class::SimdFloatMisc                 0      0.00%     86.96% # Class of executed instruction
system.cpu1.op_class::SimdFloatMult                 0      0.00%     86.96% # Class of executed instruction
system.cpu1.op_class::SimdFloatMultAcc              0      0.00%     86.96% # Class of executed instruction
system.cpu1.op_class::SimdFloatSqrt                 0      0.00%     86.96% # Class of executed instruction
system.cpu1.op_class::MemRead               353618429     11.29%     98.25% # Class of executed instruction
system.cpu1.op_class::MemWrite               54726663      1.75%    100.00% # Class of executed instruction
system.cpu1.op_class::IprAccess                     0      0.00%    100.00% # Class of executed instruction
system.cpu1.op_class::InstPrefetch                  0      0.00%    100.00% # Class of executed instruction
system.cpu1.op_class::total                3131983906                       # Class of executed instruction
system.cpu2.apic_clk_domain.clock                8000                       # Clock period in ticks
system.cpu2.numCycles                      7806358962                       # number of cpu cycles simulated
system.cpu2.numWorkItemsStarted                     0                       # number of work items this cpu started
system.cpu2.numWorkItemsCompleted                   0                       # number of work items this cpu completed
system.cpu2.kern.inst.arm                           0                       # number of arm instructions executed
system.cpu2.kern.inst.quiesce                       0                       # number of quiesce instructions executed
system.cpu2.committedInsts                    2737106                       # Number of instructions committed
system.cpu2.committedOps                      5912851                       # Number of ops (including micro ops) committed
system.cpu2.num_int_alu_accesses              5782319                       # Number of integer alu accesses
system.cpu2.num_fp_alu_accesses                     0                       # Number of float alu accesses
system.cpu2.num_func_calls                     163526                       # number of times a function call or return occured
system.cpu2.num_conditional_control_insts       414767                       # number of instructions that are conditional controls
system.cpu2.num_int_insts                     5782319                       # number of integer instructions
system.cpu2.num_fp_insts                            0                       # number of float instructions
system.cpu2.num_int_register_reads           11753601                       # number of times the integer registers were read
system.cpu2.num_int_register_writes           4800351                       # number of times the integer registers were written
system.cpu2.num_fp_register_reads                   0                       # number of times the floating registers were read
system.cpu2.num_fp_register_writes                  0                       # number of times the floating registers were written
system.cpu2.num_cc_register_reads             3323518                       # number of times the CC registers were read
system.cpu2.num_cc_register_writes            1745322                       # number of times the CC registers were written
system.cpu2.num_mem_refs                      1408558                       # number of memory refs
system.cpu2.num_load_insts                     875923                       # Number of load instructions
system.cpu2.num_store_insts                    532635                       # Number of store instructions
system.cpu2.num_idle_cycles              7794771174.045634                       # Number of idle cycles
system.cpu2.num_busy_cycles              11587787.954365                       # Number of busy cycles
system.cpu2.not_idle_fraction                0.001484                       # Percentage of non-idle cycles
system.cpu2.idle_fraction                    0.998516                       # Percentage of idle cycles
system.cpu2.Branches                           631466                       # Number of branches fetched
system.cpu2.op_class::No_OpClass               111563      1.89%      1.89% # Class of executed instruction
system.cpu2.op_class::IntAlu                  4340878     73.41%     75.30% # Class of executed instruction
system.cpu2.op_class::IntMult                   12102      0.20%     75.51% # Class of executed instruction
system.cpu2.op_class::IntDiv                    39753      0.67%     76.18% # Class of executed instruction
system.cpu2.op_class::FloatAdd                      0      0.00%     76.18% # Class of executed instruction
system.cpu2.op_class::FloatCmp                      0      0.00%     76.18% # Class of executed instruction
system.cpu2.op_class::FloatCvt                      0      0.00%     76.18% # Class of executed instruction
system.cpu2.op_class::FloatMult                     0      0.00%     76.18% # Class of executed instruction
system.cpu2.op_class::FloatDiv                      0      0.00%     76.18% # Class of executed instruction
system.cpu2.op_class::FloatSqrt                     0      0.00%     76.18% # Class of executed instruction
system.cpu2.op_class::SimdAdd                       0      0.00%     76.18% # Class of executed instruction
system.cpu2.op_class::SimdAddAcc                    0      0.00%     76.18% # Class of executed instruction
system.cpu2.op_class::SimdAlu                       0      0.00%     76.18% # Class of executed instruction
system.cpu2.op_class::SimdCmp                       0      0.00%     76.18% # Class of executed instruction
system.cpu2.op_class::SimdCvt                       0      0.00%     76.18% # Class of executed instruction
system.cpu2.op_class::SimdMisc                      0      0.00%     76.18% # Class of executed instruction
system.cpu2.op_class::SimdMult                      0      0.00%     76.18% # Class of executed instruction
system.cpu2.op_class::SimdMultAcc                   0      0.00%     76.18% # Class of executed instruction
system.cpu2.op_class::SimdShift                     0      0.00%     76.18% # Class of executed instruction
system.cpu2.op_class::SimdShiftAcc                  0      0.00%     76.18% # Class of executed instruction
system.cpu2.op_class::SimdSqrt                      0      0.00%     76.18% # Class of executed instruction
system.cpu2.op_class::SimdFloatAdd                  0      0.00%     76.18% # Class of executed instruction
system.cpu2.op_class::SimdFloatAlu                  0      0.00%     76.18% # Class of executed instruction
system.cpu2.op_class::SimdFloatCmp                  0      0.00%     76.18% # Class of executed instruction
system.cpu2.op_class::SimdFloatCvt                  0      0.00%     76.18% # Class of executed instruction
system.cpu2.op_class::SimdFloatDiv                  0      0.00%     76.18% # Class of executed instruction
system.cpu2.op_class::SimdFloatMisc                 0      0.00%     76.18% # Class of executed instruction
system.cpu2.op_class::SimdFloatMult                 0      0.00%     76.18% # Class of executed instruction
system.cpu2.op_class::SimdFloatMultAcc              0      0.00%     76.18% # Class of executed instruction
system.cpu2.op_class::SimdFloatSqrt                 0      0.00%     76.18% # Class of executed instruction
system.cpu2.op_class::MemRead                  875923     14.81%     90.99% # Class of executed instruction
system.cpu2.op_class::MemWrite                 532635      9.01%    100.00% # Class of executed instruction
system.cpu2.op_class::IprAccess                     0      0.00%    100.00% # Class of executed instruction
system.cpu2.op_class::InstPrefetch                  0      0.00%    100.00% # Class of executed instruction
system.cpu2.op_class::total                   5912854                       # Class of executed instruction
system.cpu3.apic_clk_domain.clock                8000                       # Clock period in ticks
system.cpu3.numCycles                      7807340164                       # number of cpu cycles simulated
system.cpu3.numWorkItemsStarted                     0                       # number of work items this cpu started
system.cpu3.numWorkItemsCompleted                   0                       # number of work items this cpu completed
system.cpu3.kern.inst.arm                           0                       # number of arm instructions executed
system.cpu3.kern.inst.quiesce                       0                       # number of quiesce instructions executed
system.cpu3.committedInsts                    3717020                       # Number of instructions committed
system.cpu3.committedOps                      7744174                       # Number of ops (including micro ops) committed
system.cpu3.num_int_alu_accesses              7587588                       # Number of integer alu accesses
system.cpu3.num_fp_alu_accesses                  1814                       # Number of float alu accesses
system.cpu3.num_func_calls                     199832                       # number of times a function call or return occured
system.cpu3.num_conditional_control_insts       578902                       # number of instructions that are conditional controls
system.cpu3.num_int_insts                     7587588                       # number of integer instructions
system.cpu3.num_fp_insts                         1814                       # number of float instructions
system.cpu3.num_int_register_reads           15392331                       # number of times the integer registers were read
system.cpu3.num_int_register_writes           6260822                       # number of times the integer registers were written
system.cpu3.num_fp_register_reads                3048                       # number of times the floating registers were read
system.cpu3.num_fp_register_writes               1440                       # number of times the floating registers were written
system.cpu3.num_cc_register_reads             4466799                       # number of times the CC registers were read
system.cpu3.num_cc_register_writes            2402246                       # number of times the CC registers were written
system.cpu3.num_mem_refs                      1815016                       # number of memory refs
system.cpu3.num_load_insts                    1131698                       # Number of load instructions
system.cpu3.num_store_insts                    683318                       # Number of store instructions
system.cpu3.num_idle_cycles              7791713712.153634                       # Number of idle cycles
system.cpu3.num_busy_cycles              15626451.846367                       # Number of busy cycles
system.cpu3.not_idle_fraction                0.002002                       # Percentage of non-idle cycles
system.cpu3.idle_fraction                    0.997998                       # Percentage of idle cycles
system.cpu3.Branches                           842138                       # Number of branches fetched
system.cpu3.op_class::No_OpClass               121991      1.58%      1.58% # Class of executed instruction
system.cpu3.op_class::IntAlu                  5749232     74.24%     75.81% # Class of executed instruction
system.cpu3.op_class::IntMult                   13316      0.17%     75.99% # Class of executed instruction
system.cpu3.op_class::IntDiv                    43343      0.56%     76.55% # Class of executed instruction
system.cpu3.op_class::FloatAdd                   1368      0.02%     76.56% # Class of executed instruction
system.cpu3.op_class::FloatCmp                      0      0.00%     76.56% # Class of executed instruction
system.cpu3.op_class::FloatCvt                      0      0.00%     76.56% # Class of executed instruction
system.cpu3.op_class::FloatMult                     0      0.00%     76.56% # Class of executed instruction
system.cpu3.op_class::FloatDiv                      0      0.00%     76.56% # Class of executed instruction
system.cpu3.op_class::FloatSqrt                     0      0.00%     76.56% # Class of executed instruction
system.cpu3.op_class::SimdAdd                       0      0.00%     76.56% # Class of executed instruction
system.cpu3.op_class::SimdAddAcc                    0      0.00%     76.56% # Class of executed instruction
system.cpu3.op_class::SimdAlu                       0      0.00%     76.56% # Class of executed instruction
system.cpu3.op_class::SimdCmp                       0      0.00%     76.56% # Class of executed instruction
system.cpu3.op_class::SimdCvt                       0      0.00%     76.56% # Class of executed instruction
system.cpu3.op_class::SimdMisc                      0      0.00%     76.56% # Class of executed instruction
system.cpu3.op_class::SimdMult                      0      0.00%     76.56% # Class of executed instruction
system.cpu3.op_class::SimdMultAcc                   0      0.00%     76.56% # Class of executed instruction
system.cpu3.op_class::SimdShift                     0      0.00%     76.56% # Class of executed instruction
system.cpu3.op_class::SimdShiftAcc                  0      0.00%     76.56% # Class of executed instruction
system.cpu3.op_class::SimdSqrt                      0      0.00%     76.56% # Class of executed instruction
system.cpu3.op_class::SimdFloatAdd                  0      0.00%     76.56% # Class of executed instruction
system.cpu3.op_class::SimdFloatAlu                  0      0.00%     76.56% # Class of executed instruction
system.cpu3.op_class::SimdFloatCmp                  0      0.00%     76.56% # Class of executed instruction
system.cpu3.op_class::SimdFloatCvt                  0      0.00%     76.56% # Class of executed instruction
system.cpu3.op_class::SimdFloatDiv                  0      0.00%     76.56% # Class of executed instruction
system.cpu3.op_class::SimdFloatMisc                 0      0.00%     76.56% # Class of executed instruction
system.cpu3.op_class::SimdFloatMult                 0      0.00%     76.56% # Class of executed instruction
system.cpu3.op_class::SimdFloatMultAcc              0      0.00%     76.56% # Class of executed instruction
system.cpu3.op_class::SimdFloatSqrt                 0      0.00%     76.56% # Class of executed instruction
system.cpu3.op_class::MemRead                 1131698     14.61%     91.18% # Class of executed instruction
system.cpu3.op_class::MemWrite                 683318      8.82%    100.00% # Class of executed instruction
system.cpu3.op_class::IprAccess                     0      0.00%    100.00% # Class of executed instruction
system.cpu3.op_class::InstPrefetch                  0      0.00%    100.00% # Class of executed instruction
system.cpu3.op_class::total                   7744266                       # Class of executed instruction
system.iobus.trans_dist::ReadReq                  198                       # Transaction distribution
system.iobus.trans_dist::ReadResp                 198                       # Transaction distribution
system.iobus.trans_dist::WriteReq                4043                       # Transaction distribution
system.iobus.trans_dist::WriteResp               4043                       # Transaction distribution
system.iobus.trans_dist::MessageReq                18                       # Transaction distribution
system.iobus.trans_dist::MessageResp               18                       # Transaction distribution
system.iobus.pkt_count_system.pc.south_bridge.io_apic.int_master::system.ruby.l1_cntrl0.sequencer.pio-slave-port            4                       # Packet count per connected master and slave (bytes)
system.iobus.pkt_count_system.pc.south_bridge.io_apic.int_master::system.ruby.l1_cntrl1.sequencer.pio-slave-port            4                       # Packet count per connected master and slave (bytes)
system.iobus.pkt_count_system.pc.south_bridge.io_apic.int_master::system.ruby.l1_cntrl2.sequencer.pio-slave-port            6                       # Packet count per connected master and slave (bytes)
system.iobus.pkt_count_system.pc.south_bridge.io_apic.int_master::system.ruby.l1_cntrl3.sequencer.pio-slave-port            4                       # Packet count per connected master and slave (bytes)
system.iobus.pkt_count_system.pc.south_bridge.io_apic.int_master::total           18                       # Packet count per connected master and slave (bytes)
system.iobus.pkt_count_system.ruby.l1_cntrl0.sequencer.mem-master-port::system.pc.south_bridge.ide.pio           46                       # Packet count per connected master and slave (bytes)
system.iobus.pkt_count_system.ruby.l1_cntrl0.sequencer.mem-master-port::system.pc.south_bridge.io_apic.pio            8                       # Packet count per connected master and slave (bytes)
system.iobus.pkt_count_system.ruby.l1_cntrl0.sequencer.mem-master-port::system.ruby.l1_cntrl0.sequencer.pio-slave-port         1966                       # Packet count per connected master and slave (bytes)
system.iobus.pkt_count_system.ruby.l1_cntrl0.sequencer.mem-master-port::system.ruby.l1_cntrl1.sequencer.pio-slave-port            2                       # Packet count per connected master and slave (bytes)
system.iobus.pkt_count_system.ruby.l1_cntrl0.sequencer.mem-master-port::total         2022                       # Packet count per connected master and slave (bytes)
system.iobus.pkt_count_system.ruby.l1_cntrl1.sequencer.mem-master-port::system.pc.south_bridge.ide.pio           34                       # Packet count per connected master and slave (bytes)
system.iobus.pkt_count_system.ruby.l1_cntrl1.sequencer.mem-master-port::system.pc.south_bridge.io_apic.pio           12                       # Packet count per connected master and slave (bytes)
system.iobus.pkt_count_system.ruby.l1_cntrl1.sequencer.mem-master-port::system.pc.com_1.pio          196                       # Packet count per connected master and slave (bytes)
system.iobus.pkt_count_system.ruby.l1_cntrl1.sequencer.mem-master-port::system.ruby.l1_cntrl0.sequencer.pio-slave-port            2                       # Packet count per connected master and slave (bytes)
system.iobus.pkt_count_system.ruby.l1_cntrl1.sequencer.mem-master-port::system.ruby.l1_cntrl1.sequencer.pio-slave-port         1986                       # Packet count per connected master and slave (bytes)
system.iobus.pkt_count_system.ruby.l1_cntrl1.sequencer.mem-master-port::system.ruby.l1_cntrl2.sequencer.pio-slave-port            6                       # Packet count per connected master and slave (bytes)
system.iobus.pkt_count_system.ruby.l1_cntrl1.sequencer.mem-master-port::total         2236                       # Packet count per connected master and slave (bytes)
system.iobus.pkt_count_system.ruby.l1_cntrl2.sequencer.mem-master-port::system.pc.south_bridge.io_apic.pio           22                       # Packet count per connected master and slave (bytes)
system.iobus.pkt_count_system.ruby.l1_cntrl2.sequencer.mem-master-port::system.pc.com_1.pio          244                       # Packet count per connected master and slave (bytes)
system.iobus.pkt_count_system.ruby.l1_cntrl2.sequencer.mem-master-port::system.ruby.l1_cntrl2.sequencer.pio-slave-port         1972                       # Packet count per connected master and slave (bytes)
system.iobus.pkt_count_system.ruby.l1_cntrl2.sequencer.mem-master-port::system.ruby.l1_cntrl3.sequencer.pio-slave-port            2                       # Packet count per connected master and slave (bytes)
system.iobus.pkt_count_system.ruby.l1_cntrl2.sequencer.mem-master-port::total         2240                       # Packet count per connected master and slave (bytes)
system.iobus.pkt_count_system.ruby.l1_cntrl3.sequencer.mem-master-port::system.pc.south_bridge.ide.pio           12                       # Packet count per connected master and slave (bytes)
system.iobus.pkt_count_system.ruby.l1_cntrl3.sequencer.mem-master-port::system.pc.south_bridge.io_apic.pio            8                       # Packet count per connected master and slave (bytes)
system.iobus.pkt_count_system.ruby.l1_cntrl3.sequencer.mem-master-port::system.ruby.l1_cntrl0.sequencer.pio-slave-port            2                       # Packet count per connected master and slave (bytes)
system.iobus.pkt_count_system.ruby.l1_cntrl3.sequencer.mem-master-port::system.ruby.l1_cntrl1.sequencer.pio-slave-port            2                       # Packet count per connected master and slave (bytes)
system.iobus.pkt_count_system.ruby.l1_cntrl3.sequencer.mem-master-port::system.ruby.l1_cntrl2.sequencer.pio-slave-port            2                       # Packet count per connected master and slave (bytes)
system.iobus.pkt_count_system.ruby.l1_cntrl3.sequencer.mem-master-port::system.ruby.l1_cntrl3.sequencer.pio-slave-port         1976                       # Packet count per connected master and slave (bytes)
system.iobus.pkt_count_system.ruby.l1_cntrl3.sequencer.mem-master-port::total         2002                       # Packet count per connected master and slave (bytes)
system.iobus.pkt_count::total                    8518                       # Packet count per connected master and slave (bytes)
system.iobus.pkt_size_system.pc.south_bridge.io_apic.int_master::system.ruby.l1_cntrl0.sequencer.pio-slave-port            8                       # Cumulative packet size per connected master and slave (bytes)
system.iobus.pkt_size_system.pc.south_bridge.io_apic.int_master::system.ruby.l1_cntrl1.sequencer.pio-slave-port            8                       # Cumulative packet size per connected master and slave (bytes)
system.iobus.pkt_size_system.pc.south_bridge.io_apic.int_master::system.ruby.l1_cntrl2.sequencer.pio-slave-port           12                       # Cumulative packet size per connected master and slave (bytes)
system.iobus.pkt_size_system.pc.south_bridge.io_apic.int_master::system.ruby.l1_cntrl3.sequencer.pio-slave-port            8                       # Cumulative packet size per connected master and slave (bytes)
system.iobus.pkt_size_system.pc.south_bridge.io_apic.int_master::total           36                       # Cumulative packet size per connected master and slave (bytes)
system.iobus.pkt_size_system.ruby.l1_cntrl0.sequencer.mem-master-port::system.pc.south_bridge.ide.pio           26                       # Cumulative packet size per connected master and slave (bytes)
system.iobus.pkt_size_system.ruby.l1_cntrl0.sequencer.mem-master-port::system.pc.south_bridge.io_apic.pio           16                       # Cumulative packet size per connected master and slave (bytes)
system.iobus.pkt_size_system.ruby.l1_cntrl0.sequencer.mem-master-port::system.ruby.l1_cntrl0.sequencer.pio-slave-port         3932                       # Cumulative packet size per connected master and slave (bytes)
system.iobus.pkt_size_system.ruby.l1_cntrl0.sequencer.mem-master-port::system.ruby.l1_cntrl1.sequencer.pio-slave-port            4                       # Cumulative packet size per connected master and slave (bytes)
system.iobus.pkt_size_system.ruby.l1_cntrl0.sequencer.mem-master-port::total         3978                       # Cumulative packet size per connected master and slave (bytes)
system.iobus.pkt_size_system.ruby.l1_cntrl1.sequencer.mem-master-port::system.pc.south_bridge.ide.pio           20                       # Cumulative packet size per connected master and slave (bytes)
system.iobus.pkt_size_system.ruby.l1_cntrl1.sequencer.mem-master-port::system.pc.south_bridge.io_apic.pio           24                       # Cumulative packet size per connected master and slave (bytes)
system.iobus.pkt_size_system.ruby.l1_cntrl1.sequencer.mem-master-port::system.pc.com_1.pio           98                       # Cumulative packet size per connected master and slave (bytes)
system.iobus.pkt_size_system.ruby.l1_cntrl1.sequencer.mem-master-port::system.ruby.l1_cntrl0.sequencer.pio-slave-port            4                       # Cumulative packet size per connected master and slave (bytes)
system.iobus.pkt_size_system.ruby.l1_cntrl1.sequencer.mem-master-port::system.ruby.l1_cntrl1.sequencer.pio-slave-port         3972                       # Cumulative packet size per connected master and slave (bytes)
system.iobus.pkt_size_system.ruby.l1_cntrl1.sequencer.mem-master-port::system.ruby.l1_cntrl2.sequencer.pio-slave-port           12                       # Cumulative packet size per connected master and slave (bytes)
system.iobus.pkt_size_system.ruby.l1_cntrl1.sequencer.mem-master-port::total         4130                       # Cumulative packet size per connected master and slave (bytes)
system.iobus.pkt_size_system.ruby.l1_cntrl2.sequencer.mem-master-port::system.pc.south_bridge.io_apic.pio           44                       # Cumulative packet size per connected master and slave (bytes)
system.iobus.pkt_size_system.ruby.l1_cntrl2.sequencer.mem-master-port::system.pc.com_1.pio          122                       # Cumulative packet size per connected master and slave (bytes)
system.iobus.pkt_size_system.ruby.l1_cntrl2.sequencer.mem-master-port::system.ruby.l1_cntrl2.sequencer.pio-slave-port         3944                       # Cumulative packet size per connected master and slave (bytes)
system.iobus.pkt_size_system.ruby.l1_cntrl2.sequencer.mem-master-port::system.ruby.l1_cntrl3.sequencer.pio-slave-port            4                       # Cumulative packet size per connected master and slave (bytes)
system.iobus.pkt_size_system.ruby.l1_cntrl2.sequencer.mem-master-port::total         4114                       # Cumulative packet size per connected master and slave (bytes)
system.iobus.pkt_size_system.ruby.l1_cntrl3.sequencer.mem-master-port::system.pc.south_bridge.ide.pio            6                       # Cumulative packet size per connected master and slave (bytes)
system.iobus.pkt_size_system.ruby.l1_cntrl3.sequencer.mem-master-port::system.pc.south_bridge.io_apic.pio           16                       # Cumulative packet size per connected master and slave (bytes)
system.iobus.pkt_size_system.ruby.l1_cntrl3.sequencer.mem-master-port::system.ruby.l1_cntrl0.sequencer.pio-slave-port            4                       # Cumulative packet size per connected master and slave (bytes)
system.iobus.pkt_size_system.ruby.l1_cntrl3.sequencer.mem-master-port::system.ruby.l1_cntrl1.sequencer.pio-slave-port            4                       # Cumulative packet size per connected master and slave (bytes)
system.iobus.pkt_size_system.ruby.l1_cntrl3.sequencer.mem-master-port::system.ruby.l1_cntrl2.sequencer.pio-slave-port            4                       # Cumulative packet size per connected master and slave (bytes)
system.iobus.pkt_size_system.ruby.l1_cntrl3.sequencer.mem-master-port::system.ruby.l1_cntrl3.sequencer.pio-slave-port         3952                       # Cumulative packet size per connected master and slave (bytes)
system.iobus.pkt_size_system.ruby.l1_cntrl3.sequencer.mem-master-port::total         3986                       # Cumulative packet size per connected master and slave (bytes)
system.iobus.pkt_size::total                    16244                       # Cumulative packet size per connected master and slave (bytes)
system.iobus.reqLayer2.occupancy                83000                       # Layer occupancy (ticks)
system.iobus.reqLayer2.utilization                0.0                       # Layer utilization (%)
system.iobus.reqLayer8.occupancy                45995                       # Layer occupancy (ticks)
system.iobus.reqLayer8.utilization                0.0                       # Layer utilization (%)
system.iobus.reqLayer12.occupancy              285000                       # Layer occupancy (ticks)
system.iobus.reqLayer12.utilization               0.0                       # Layer utilization (%)
system.iobus.reqLayer17.occupancy             2463499                       # Layer occupancy (ticks)
system.iobus.reqLayer17.utilization               0.0                       # Layer utilization (%)
system.iobus.reqLayer18.occupancy             2721022                       # Layer occupancy (ticks)
system.iobus.reqLayer18.utilization               0.0                       # Layer utilization (%)
system.iobus.reqLayer19.occupancy             2476500                       # Layer occupancy (ticks)
system.iobus.reqLayer19.utilization               0.0                       # Layer utilization (%)
system.iobus.reqLayer20.occupancy             2469997                       # Layer occupancy (ticks)
system.iobus.reqLayer20.utilization               0.0                       # Layer utilization (%)
system.iobus.respLayer0.occupancy               11998                       # Layer occupancy (ticks)
system.iobus.respLayer0.utilization               0.0                       # Layer utilization (%)
system.iobus.respLayer2.occupancy             1513500                       # Layer occupancy (ticks)
system.iobus.respLayer2.utilization               0.0                       # Layer utilization (%)
system.iobus.respLayer4.occupancy             1698000                       # Layer occupancy (ticks)
system.iobus.respLayer4.utilization               0.0                       # Layer utilization (%)
system.iobus.respLayer6.occupancy             1708000                       # Layer occupancy (ticks)
system.iobus.respLayer6.utilization               0.0                       # Layer utilization (%)
system.iobus.respLayer8.occupancy             1504000                       # Layer occupancy (ticks)
system.iobus.respLayer8.utilization               0.0                       # Layer utilization (%)
system.pc.south_bridge.ide.disks.dma_read_full_pages            1                       # Number of full page size DMA reads (not PRD).
system.pc.south_bridge.ide.disks.dma_read_bytes         4096                       # Number of bytes transfered via DMA reads (not PRD).
system.pc.south_bridge.ide.disks.dma_read_txs            1                       # Number of DMA read transactions (not PRD).
system.pc.south_bridge.ide.disks.dma_write_full_pages           24                       # Number of full page size DMA writes.
system.pc.south_bridge.ide.disks.dma_write_bytes        98304                       # Number of bytes transfered via DMA writes.
system.pc.south_bridge.ide.disks.dma_write_txs           24                       # Number of DMA write transactions.
system.ruby.clk_domain.clock                      500                       # Clock period in ticks
system.ruby.outstanding_req_hist_seqr::bucket_size            1                      
system.ruby.outstanding_req_hist_seqr::max_bucket            9                      
system.ruby.outstanding_req_hist_seqr::samples   3806027114                      
system.ruby.outstanding_req_hist_seqr::mean     1.000000                      
system.ruby.outstanding_req_hist_seqr::gmean     1.000000                      
system.ruby.outstanding_req_hist_seqr::stdev     0.000225                      
system.ruby.outstanding_req_hist_seqr    |           0      0.00%      0.00% |  3806026921    100.00%    100.00% |         193      0.00%    100.00% |           0      0.00%    100.00% |           0      0.00%    100.00% |           0      0.00%    100.00% |           0      0.00%    100.00% |           0      0.00%    100.00% |           0      0.00%    100.00% |           0      0.00%    100.00%
system.ruby.outstanding_req_hist_seqr::total   3806027114                      
system.ruby.latency_hist_seqr::bucket_size          128                      
system.ruby.latency_hist_seqr::max_bucket         1279                      
system.ruby.latency_hist_seqr::samples     3806027114                      
system.ruby.latency_hist_seqr::mean          1.061329                      
system.ruby.latency_hist_seqr::gmean         1.005615                      
system.ruby.latency_hist_seqr::stdev         2.627731                      
system.ruby.latency_hist_seqr            |  3805785796     99.99%     99.99% |      209333      0.01%    100.00% |       12153      0.00%    100.00% |        6187      0.00%    100.00% |       10786      0.00%    100.00% |        2642      0.00%    100.00% |         175      0.00%    100.00% |          39      0.00%    100.00% |           3      0.00%    100.00% |           0      0.00%    100.00%
system.ruby.latency_hist_seqr::total       3806027114                      
system.ruby.hit_latency_hist_seqr::bucket_size            2                      
system.ruby.hit_latency_hist_seqr::max_bucket           19                      
system.ruby.hit_latency_hist_seqr::samples   3804511052                      
system.ruby.hit_latency_hist_seqr::mean      1.015601                      
system.ruby.hit_latency_hist_seqr::gmean     1.003748                      
system.ruby.hit_latency_hist_seqr::stdev     0.394673                      
system.ruby.hit_latency_hist_seqr        |  3798575642     99.84%     99.84% |           0      0.00%     99.84% |           0      0.00%     99.84% |           0      0.00%     99.84% |           0      0.00%     99.84% |     5935410      0.16%    100.00% |           0      0.00%    100.00% |           0      0.00%    100.00% |           0      0.00%    100.00% |           0      0.00%    100.00%
system.ruby.hit_latency_hist_seqr::total   3804511052                      
system.ruby.miss_latency_hist_seqr::bucket_size          128                      
system.ruby.miss_latency_hist_seqr::max_bucket         1279                      
system.ruby.miss_latency_hist_seqr::samples      1516062                      
system.ruby.miss_latency_hist_seqr::mean   115.814110                      
system.ruby.miss_latency_hist_seqr::gmean   106.687271                      
system.ruby.miss_latency_hist_seqr::stdev    61.403372                      
system.ruby.miss_latency_hist_seqr       |     1274744     84.08%     84.08% |      209333     13.81%     97.89% |       12153      0.80%     98.69% |        6187      0.41%     99.10% |       10786      0.71%     99.81% |        2642      0.17%     99.99% |         175      0.01%    100.00% |          39      0.00%    100.00% |           3      0.00%    100.00% |           0      0.00%    100.00%
[...]
system.ruby.L1Cache_Controller.O.Trigger_L2_to_L1I::total        27840                      
system.ruby.L1Cache_Controller.O.Other_GETX |        5111     22.40%     22.40% |        1301      5.70%     28.10% |        7360     32.26%     60.36% |        9044     39.64%    100.00%
system.ruby.L1Cache_Controller.O.Other_GETX::total        22816                      
system.ruby.L1Cache_Controller.O.Other_GETS |        3137     12.21%     12.21% |        1302      5.07%     17.28% |        7695     29.96%     47.24% |       13551     52.76%    100.00%
system.ruby.L1Cache_Controller.O.Other_GETS::total        25685                      
system.ruby.L1Cache_Controller.M.Load    |      150643      0.10%      0.10% |   145703550     99.68%     99.79% |       97610      0.07%     99.85% |      216345      0.15%    100.00%
system.ruby.L1Cache_Controller.M.Load::total    146168148                      
system.ruby.L1Cache_Controller.M.Ifetch  |     1737256      0.00%      0.00% |18446744072780408832    100.00%    100.00% |       27692      0.00%    100.00% |      882853      0.00%    100.00%
system.ruby.L1Cache_Controller.M.Ifetch::total 18446744072783056896                      
system.ruby.L1Cache_Controller.M.Store   |        3182      0.72%      0.72% |      427228     97.12%     97.84% |        1234      0.28%     98.13% |        8246      1.87%    100.00%
system.ruby.L1Cache_Controller.M.Store::total       439890                      
system.ruby.L1Cache_Controller.M.L2_Replacement |          34      0.01%      0.01% |      612349     99.87%     99.87% |           1      0.00%     99.87% |         782      0.13%    100.00%
system.ruby.L1Cache_Controller.M.L2_Replacement::total       613166                      
system.ruby.L1Cache_Controller.M.L1_to_L2 |       16536      0.36%      0.36% |     4533558     99.20%     99.57% |        5056      0.11%     99.68% |       14751      0.32%    100.00%
system.ruby.L1Cache_Controller.M.L1_to_L2::total      4569901                      
system.ruby.L1Cache_Controller.M.Trigger_L2_to_L1D |        2584      0.07%      0.07% |     3523873     99.78%     99.85% |         619      0.02%     99.87% |        4636      0.13%    100.00%
system.ruby.L1Cache_Controller.M.Trigger_L2_to_L1D::total      3531712                      
system.ruby.L1Cache_Controller.M.Trigger_L2_to_L1I |        8283      2.06%      2.06% |      392546     97.58%     99.64% |         165      0.04%     99.68% |        1290      0.32%    100.00%
system.ruby.L1Cache_Controller.M.Trigger_L2_to_L1I::total       402284                      
system.ruby.L1Cache_Controller.M.Other_GETX |         794     35.62%     35.62% |         228     10.23%     45.85% |         160      7.18%     53.03% |        1047     46.97%    100.00%
system.ruby.L1Cache_Controller.M.Other_GETX::total         2229                      
system.ruby.L1Cache_Controller.M.Other_GETS |        6771     23.73%     23.73% |        2981     10.45%     34.17% |        7864     27.56%     61.73% |       10921     38.27%    100.00%
system.ruby.L1Cache_Controller.M.Other_GETS::total        28537                      
system.ruby.L1Cache_Controller.M.Merged_GETS |           7     10.61%     10.61% |           4      6.06%     16.67% |           3      4.55%     21.21% |          52     78.79%    100.00%
system.ruby.L1Cache_Controller.M.Merged_GETS::total           66                      
system.ruby.L1Cache_Controller.MM.Load   |     1117643      0.54%      0.54% |   203483665     98.45%     98.99% |      629686      0.30%     99.29% |     1461708      0.71%    100.00%
system.ruby.L1Cache_Controller.MM.Load::total    206692702                      
system.ruby.L1Cache_Controller.MM.Store  |     1181933      2.05%      2.05% |    54307823     94.11%     96.15% |      699370      1.21%     97.37% |     1520643      2.63%    100.00%
system.ruby.L1Cache_Controller.MM.Store::total     57709769                      
system.ruby.L1Cache_Controller.MM.L2_Replacement |         178      0.02%      0.02% |      780678     99.71%     99.73% |           0      0.00%     99.73% |        2128      0.27%    100.00%
system.ruby.L1Cache_Controller.MM.L2_Replacement::total       782984                      
system.ruby.L1Cache_Controller.MM.L1_to_L2 |       22786      0.85%      0.85% |     2596382     97.18%     98.03% |        8261      0.31%     98.34% |       44290      1.66%    100.00%
system.ruby.L1Cache_Controller.MM.L1_to_L2::total      2671719                      
system.ruby.L1Cache_Controller.MM.Trigger_L2_to_L1D |        9622      0.53%      0.53% |     1792743     98.02%     98.54% |        2665      0.15%     98.69% |       23953      1.31%    100.00%
system.ruby.L1Cache_Controller.MM.Trigger_L2_to_L1D::total      1828983                      
system.ruby.L1Cache_Controller.MM.Other_GETX |        4067     31.63%     31.63% |        2896     22.52%     54.15% |        2663     20.71%     74.86% |        3232     25.14%    100.00%
system.ruby.L1Cache_Controller.MM.Other_GETX::total        12858                      
system.ruby.L1Cache_Controller.MM.Other_GETS |       14031     40.71%     40.71% |        7241     21.01%     61.72% |        5024     14.58%     76.30% |        8167     23.70%    100.00%
system.ruby.L1Cache_Controller.MM.Other_GETS::total        34463                      
system.ruby.L1Cache_Controller.MM.Merged_GETS |         108     23.08%     23.08% |         131     27.99%     51.07% |         121     25.85%     76.92% |         108     23.08%    100.00%
system.ruby.L1Cache_Controller.MM.Merged_GETS::total          468                      
system.ruby.L1Cache_Controller.SR.Load   |        5624      7.25%      7.25% |       55196     71.18%     78.43% |        4651      6.00%     84.43% |       12075     15.57%    100.00%
system.ruby.L1Cache_Controller.SR.Load::total        77546                      
system.ruby.L1Cache_Controller.SR.Ifetch |       53232     30.75%     30.75% |       35244     20.36%     51.11% |       33657     19.44%     70.55% |       50971     29.45%    100.00%
system.ruby.L1Cache_Controller.SR.Ifetch::total       173104                      
system.ruby.L1Cache_Controller.SR.Store  |         117     22.50%     22.50% |         195     37.50%     60.00% |          59     11.35%     71.35% |         149     28.65%    100.00%
system.ruby.L1Cache_Controller.SR.Store::total          520                      
system.ruby.L1Cache_Controller.OR.Load   |        1513     22.23%     22.23% |        1175     17.27%     39.50% |         921     13.53%     53.03% |        3196     46.97%    100.00%
system.ruby.L1Cache_Controller.OR.Load::total         6805                      
system.ruby.L1Cache_Controller.OR.Ifetch |        2218      7.97%      7.97% |       12736     45.75%     53.71% |         372      1.34%     55.05% |       12514     44.95%    100.00%
system.ruby.L1Cache_Controller.OR.Ifetch::total        27840                      
system.ruby.L1Cache_Controller.OR.Store  |          15     24.19%     24.19% |           3      4.84%     29.03% |           8     12.90%     41.94% |          36     58.06%    100.00%
system.ruby.L1Cache_Controller.OR.Store::total           62                      
system.ruby.L1Cache_Controller.MR.Load   |        1847      0.05%      0.05% |     3507748     99.83%     99.88% |         592      0.02%     99.90% |        3521      0.10%    100.00%
system.ruby.L1Cache_Controller.MR.Load::total      3513708                      
system.ruby.L1Cache_Controller.MR.Ifetch |        8283      2.06%      2.06% |      392546     97.58%     99.64% |         165      0.04%     99.68% |        1290      0.32%    100.00%
system.ruby.L1Cache_Controller.MR.Ifetch::total       402284                      
system.ruby.L1Cache_Controller.MR.Store  |         737      4.09%      4.09% |       16125     89.56%     93.66% |          27      0.15%     93.81% |        1115      6.19%    100.00%
system.ruby.L1Cache_Controller.MR.Store::total        18004                      
system.ruby.L1Cache_Controller.MMR.Load  |        5796      0.36%      0.36% |     1597625     98.68%     99.04% |         687      0.04%     99.08% |       14828      0.92%    100.00%
system.ruby.L1Cache_Controller.MMR.Load::total      1618936                      
system.ruby.L1Cache_Controller.MMR.Store |        3826      1.82%      1.82% |      195118     92.89%     94.71% |        1978      0.94%     95.66% |        9125      4.34%    100.00%
system.ruby.L1Cache_Controller.MMR.Store::total       210047                      
system.ruby.L1Cache_Controller.IM.Ack    |       32678      2.88%      2.88% |     1074238     94.58%     97.46% |        9372      0.83%     98.28% |       19479      1.72%    100.00%
system.ruby.L1Cache_Controller.IM.Ack::total      1135767                      
system.ruby.L1Cache_Controller.IM.Data   |        3891     42.21%     42.21% |        1035     11.23%     53.44% |        1921     20.84%     74.28% |        2371     25.72%    100.00%
system.ruby.L1Cache_Controller.IM.Data::total         9218                      
system.ruby.L1Cache_Controller.IM.Exclusive_Data |       10051      2.61%      2.61% |      360770     93.81%     96.42% |        3757      0.98%     97.40% |       10016      2.60%    100.00%
system.ruby.L1Cache_Controller.IM.Exclusive_Data::total       384594                      
system.ruby.L1Cache_Controller.SM.Other_GETX |           1    100.00%    100.00% |           0      0.00%    100.00% |           0      0.00%    100.00% |           0      0.00%    100.00%
system.ruby.L1Cache_Controller.SM.Other_GETX::total            1                      
system.ruby.L1Cache_Controller.SM.Ack    |        8204     51.45%     51.45% |        2099     13.16%     64.61% |        1331      8.35%     72.96% |        4312     27.04%    100.00%
system.ruby.L1Cache_Controller.SM.Ack::total        15946                      
system.ruby.L1Cache_Controller.SM.Data   |        5556     40.71%     40.71% |        2472     18.11%     58.82% |        2087     15.29%     74.11% |        3533     25.89%    100.00%
system.ruby.L1Cache_Controller.SM.Data::total        13648                      
system.ruby.L1Cache_Controller.OM.Ack    |         387     27.98%     27.98% |          78      5.64%     33.62% |          57      4.12%     37.74% |         861     62.26%    100.00%
system.ruby.L1Cache_Controller.OM.Ack::total         1383                      
system.ruby.L1Cache_Controller.OM.All_acks_no_sharers |         129     27.98%     27.98% |          26      5.64%     33.62% |          19      4.12%     37.74% |         287     62.26%    100.00%
system.ruby.L1Cache_Controller.OM.All_acks_no_sharers::total          461                      
system.ruby.L1Cache_Controller.ISM.Ack   |        4554     24.41%     24.41% |        4052     21.72%     46.13% |        5890     31.57%     77.71% |        4159     22.29%    100.00%
system.ruby.L1Cache_Controller.ISM.Ack::total        18655                      
system.ruby.L1Cache_Controller.ISM.All_acks_no_sharers |        9447     41.31%     41.31% |        3507     15.34%     56.65% |        4008     17.53%     74.18% |        5904     25.82%    100.00%
system.ruby.L1Cache_Controller.ISM.All_acks_no_sharers::total        22866                      
system.ruby.L1Cache_Controller.M_W.Load  |          45     19.65%     19.65% |          54     23.58%     43.23% |          28     12.23%     55.46% |         102     44.54%    100.00%
system.ruby.L1Cache_Controller.M_W.Load::total          229                      
system.ruby.L1Cache_Controller.M_W.Store |          29     55.77%     55.77% |          13     25.00%     80.77% |           2      3.85%     84.62% |           8     15.38%    100.00%
system.ruby.L1Cache_Controller.M_W.Store::total           52                      
system.ruby.L1Cache_Controller.M_W.Ack   |        5635     14.84%     14.84% |        4373     11.51%     26.35% |        7407     19.50%     45.85% |       20569     54.15%    100.00%
system.ruby.L1Cache_Controller.M_W.Ack::total        37984                      
system.ruby.L1Cache_Controller.M_W.All_acks_no_sharers |       13450      1.21%      1.21% |     1061183     95.63%     96.85% |        9955      0.90%     97.74% |       25033      2.26%    100.00%
system.ruby.L1Cache_Controller.M_W.All_acks_no_sharers::total      1109621                      
system.ruby.L1Cache_Controller.MM_W.Load |           1    100.00%    100.00% |           0      0.00%    100.00% |           0      0.00%    100.00% |           0      0.00%    100.00%
system.ruby.L1Cache_Controller.MM_W.Load::total            1                      
system.ruby.L1Cache_Controller.MM_W.Store |         713     14.21%     14.21% |        1362     27.15%     41.36% |         603     12.02%     53.38% |        2339     46.62%    100.00%
system.ruby.L1Cache_Controller.MM_W.Store::total         5017                      
system.ruby.L1Cache_Controller.MM_W.Ack  |        1640     11.50%     11.50% |        4212     29.52%     41.02% |        1351      9.47%     50.49% |        7063     49.51%    100.00%
system.ruby.L1Cache_Controller.MM_W.Ack::total        14266                      
system.ruby.L1Cache_Controller.MM_W.All_acks_no_sharers |       10080      2.62%      2.62% |      360783     93.80%     96.42% |        3759      0.98%     97.39% |       10024      2.61%    100.00%
system.ruby.L1Cache_Controller.MM_W.All_acks_no_sharers::total       384646                      
system.ruby.L1Cache_Controller.IS.Other_GETS |           0      0.00%      0.00% |           1    100.00%    100.00% |           0      0.00%    100.00% |           0      0.00%    100.00%
system.ruby.L1Cache_Controller.IS.Other_GETS::total            1                      
system.ruby.L1Cache_Controller.IS.Ack    |       39852      1.20%      1.20% |     3193854     96.56%     97.76% |       24800      0.75%     98.51% |       49266      1.49%    100.00%
system.ruby.L1Cache_Controller.IS.Ack::total      3307772                      
system.ruby.L1Cache_Controller.IS.Shared_Ack |        9508     28.15%     28.15% |       14547     43.06%     71.21% |        5011     14.83%     86.04% |        4714     13.96%    100.00%
system.ruby.L1Cache_Controller.IS.Shared_Ack::total        33780                      
system.ruby.L1Cache_Controller.IS.Data   |        1057     13.39%     13.39% |        6098     77.24%     90.63% |         218      2.76%     93.39% |         522      6.61%    100.00%
system.ruby.L1Cache_Controller.IS.Data::total         7895                      
system.ruby.L1Cache_Controller.IS.Shared_Data |       15580     28.45%     28.45% |       12658     23.12%     51.57% |       13512     24.68%     76.25% |       13007     23.75%    100.00%
system.ruby.L1Cache_Controller.IS.Shared_Data::total        54757                      
system.ruby.L1Cache_Controller.IS.Exclusive_Data |       13479      1.21%      1.21% |     1061196     95.63%     96.85% |        9957      0.90%     97.74% |       25041      2.26%    100.00%
system.ruby.L1Cache_Controller.IS.Exclusive_Data::total      1109673                      
system.ruby.L1Cache_Controller.SS.Load   |          29      4.90%      4.90% |         431     72.80%     77.70% |           5      0.84%     78.55% |         127     21.45%    100.00%
system.ruby.L1Cache_Controller.SS.Load::total          592                      
system.ruby.L1Cache_Controller.SS.Ifetch |         970     21.47%     21.47% |        1575     34.86%     56.33% |         520     11.51%     67.84% |        1453     32.16%    100.00%
system.ruby.L1Cache_Controller.SS.Ifetch::total         4518                      
system.ruby.L1Cache_Controller.SS.Store  |           2      5.71%      5.71% |           2      5.71%     11.43% |           0      0.00%     11.43% |          31     88.57%    100.00%
system.ruby.L1Cache_Controller.SS.Store::total           35                      
system.ruby.L1Cache_Controller.SS.Ack    |        9355     26.95%     26.95% |        6047     17.42%     44.38% |        8777     25.29%     69.67% |       10528     30.33%    100.00%
system.ruby.L1Cache_Controller.SS.Ack::total        34707                      
system.ruby.L1Cache_Controller.SS.Shared_Ack |        3070     24.77%     24.77% |        3929     31.70%     56.47% |        3002     24.22%     80.69% |        2394     19.31%    100.00%
system.ruby.L1Cache_Controller.SS.Shared_Ack::total        12395                      
system.ruby.L1Cache_Controller.SS.All_acks |       16631     26.56%     26.56% |       18748     29.94%     56.50% |       13730     21.93%     78.43% |       13510     21.57%    100.00%
system.ruby.L1Cache_Controller.SS.All_acks::total        62619                      
system.ruby.L1Cache_Controller.SS.All_acks_no_sharers |           6     18.18%     18.18% |           8     24.24%     42.42% |           0      0.00%     42.42% |          19     57.58%    100.00%
system.ruby.L1Cache_Controller.SS.All_acks_no_sharers::total           33                      
system.ruby.L1Cache_Controller.OI.Load   |           0      0.00%      0.00% |           1    100.00%    100.00% |           0      0.00%    100.00% |           0      0.00%    100.00%
system.ruby.L1Cache_Controller.OI.Load::total            1                      
system.ruby.L1Cache_Controller.OI.Ifetch |           0      0.00%      0.00% |           2     66.67%     66.67% |           0      0.00%     66.67% |           1     33.33%    100.00%
system.ruby.L1Cache_Controller.OI.Ifetch::total            3                      
system.ruby.L1Cache_Controller.OI.Writeback_Ack |          31      0.63%      0.63% |        4428     90.16%     90.80% |           1      0.02%     90.82% |         451      9.18%    100.00%
system.ruby.L1Cache_Controller.OI.Writeback_Ack::total         4911                      
system.ruby.L1Cache_Controller.MI.Load   |           1      0.02%      0.02% |        4613     99.83%     99.85% |           0      0.00%     99.85% |           7      0.15%    100.00%
system.ruby.L1Cache_Controller.MI.Load::total         4621                      
system.ruby.L1Cache_Controller.MI.Store  |           1      0.06%      0.06% |        1542     99.94%    100.00% |           0      0.00%    100.00% |           0      0.00%    100.00%
system.ruby.L1Cache_Controller.MI.Store::total         1543                      
system.ruby.L1Cache_Controller.MI.Writeback_Ack |         212      0.02%      0.02% |     1393027     99.78%     99.79% |           1      0.00%     99.79% |        2910      0.21%    100.00%
system.ruby.L1Cache_Controller.MI.Writeback_Ack::total      1396150                      
system.ruby.L1Cache_Controller.ST.Complete_L2_to_L1 |       58973     23.48%     23.48% |       90635     36.09%     59.56% |       38367     15.28%     74.84% |       63195     25.16%    100.00%
system.ruby.L1Cache_Controller.ST.Complete_L2_to_L1::total       251170                      
system.ruby.L1Cache_Controller.OT.Complete_L2_to_L1 |        3746     10.79%     10.79% |       13914     40.09%     50.88% |        1301      3.75%     54.63% |       15746     45.37%    100.00%
system.ruby.L1Cache_Controller.OT.Complete_L2_to_L1::total        34707                      
system.ruby.L1Cache_Controller.MT.Complete_L2_to_L1 |       10867      0.28%      0.28% |     3916419     99.55%     99.83% |         784      0.02%     99.85% |        5926      0.15%    100.00%
system.ruby.L1Cache_Controller.MT.Complete_L2_to_L1::total      3933996                      
system.ruby.L1Cache_Controller.MMT.Complete_L2_to_L1 |        9622      0.53%      0.53% |     1792743     98.02%     98.54% |        2665      0.15%     98.69% |       23953      1.31%    100.00%
system.ruby.L1Cache_Controller.MMT.Complete_L2_to_L1::total      1828983                      

---------- End Simulation Statistics   ----------
