
---------- Begin Simulation Statistics ----------
sim_seconds                                  2.929682                       # Number of seconds simulated
sim_ticks                                2929682424500                       # Number of ticks simulated
final_tick                               56080145151001                       # Number of ticks from beginning of simulation (restored from checkpoints and never reset)
sim_freq                                 1000000000000                       # Frequency of simulated ticks
host_inst_rate                                 115112                       # Simulator instruction rate (inst/s)
host_op_rate                                   192925                       # Simulator op (including micro ops) rate (op/s)
host_tick_rate                              219906072                       # Simulator tick rate (ticks/s)
host_mem_usage                                1860764                       # Number of bytes of host memory used
host_seconds                                 13322.43                       # Real time elapsed on the host
sim_insts                                  1533569870                       # Number of instructions simulated
sim_ops                                    2570222598                       # Number of ops (including micro ops) simulated
system.voltage_domain.voltage                       1                       # Voltage in Volts
system.clk_domain.clock                          1000                       # Clock period in ticks
system.mem_ctrls.bytes_read::ruby.dir_cntrl0      9026816                       # Number of bytes read from this memory
system.mem_ctrls.bytes_read::total            9026816                       # Number of bytes read from this memory
system.mem_ctrls.bytes_written::ruby.dir_cntrl0      6491904                       # Number of bytes written to this memory
system.mem_ctrls.bytes_written::total         6491904                       # Number of bytes written to this memory
system.mem_ctrls.num_reads::ruby.dir_cntrl0       141044                       # Number of read requests responded to by this memory
system.mem_ctrls.num_reads::total              141044                       # Number of read requests responded to by this memory
system.mem_ctrls.num_writes::ruby.dir_cntrl0       101436                       # Number of write requests responded to by this memory
system.mem_ctrls.num_writes::total             101436                       # Number of write requests responded to by this memory
system.mem_ctrls.bw_read::ruby.dir_cntrl0      3081159                       # Total read bandwidth from this memory (bytes/s)
system.mem_ctrls.bw_read::total               3081159                       # Total read bandwidth from this memory (bytes/s)
system.mem_ctrls.bw_write::ruby.dir_cntrl0      2215907                       # Write bandwidth from this memory (bytes/s)
system.mem_ctrls.bw_write::total              2215907                       # Write bandwidth from this memory (bytes/s)
system.mem_ctrls.bw_total::ruby.dir_cntrl0      5297066                       # Total bandwidth to/from this memory (bytes/s)
system.mem_ctrls.bw_total::total              5297066                       # Total bandwidth to/from this memory (bytes/s)
system.mem_ctrls.readReqs                      141044                       # Number of read requests accepted
system.mem_ctrls.writeReqs                     101436                       # Number of write requests accepted
system.mem_ctrls.readBursts                    141044                       # Number of DRAM read bursts, including those serviced by the write queue
system.mem_ctrls.writeBursts                   101436                       # Number of DRAM write bursts, including those merged in the write queue
system.mem_ctrls.bytesReadDRAM                9025984                       # Total number of bytes read from DRAM
system.mem_ctrls.bytesReadWrQ                     832                       # Total number of bytes read from write queue
system.mem_ctrls.bytesWritten                 6489984                       # Total number of bytes written to DRAM
system.mem_ctrls.bytesReadSys                 9026816                       # Total read bytes from the system interface side
system.mem_ctrls.bytesWrittenSys              6491904                       # Total written bytes from the system interface side
system.mem_ctrls.servicedByWrQ                     13                       # Number of DRAM read bursts serviced by the write queue
system.mem_ctrls.mergedWrBursts                     0                       # Number of DRAM write bursts merged with an existing one
system.mem_ctrls.neitherReadNorWriteReqs            0                       # Number of requests that are neither read nor write
system.mem_ctrls.perBankRdBursts::0              9640                       # Per bank write bursts
system.mem_ctrls.perBankRdBursts::1              9068                       # Per bank write bursts
system.mem_ctrls.perBankRdBursts::2              9096                       # Per bank write bursts
system.mem_ctrls.perBankRdBursts::3              9065                       # Per bank write bursts
system.mem_ctrls.perBankRdBursts::4              8729                       # Per bank write bursts
system.mem_ctrls.perBankRdBursts::5              8806                       # Per bank write bursts
system.mem_ctrls.perBankRdBursts::6              9449                       # Per bank write bursts
system.mem_ctrls.perBankRdBursts::7              8464                       # Per bank write bursts
system.mem_ctrls.perBankRdBursts::8              8248                       # Per bank write bursts
system.mem_ctrls.perBankRdBursts::9              8317                       # Per bank write bursts
system.mem_ctrls.perBankRdBursts::10             8896                       # Per bank write bursts
system.mem_ctrls.perBankRdBursts::11             8790                       # Per bank write bursts
system.mem_ctrls.perBankRdBursts::12             8242                       # Per bank write bursts
system.mem_ctrls.perBankRdBursts::13             8747                       # Per bank write bursts
system.mem_ctrls.perBankRdBursts::14             8674                       # Per bank write bursts
system.mem_ctrls.perBankRdBursts::15             8800                       # Per bank write bursts
system.mem_ctrls.perBankWrBursts::0              6521                       # Per bank write bursts
system.mem_ctrls.perBankWrBursts::1              6277                       # Per bank write bursts
system.mem_ctrls.perBankWrBursts::2              6344                       # Per bank write bursts
system.mem_ctrls.perBankWrBursts::3              6148                       # Per bank write bursts
system.mem_ctrls.perBankWrBursts::4              6280                       # Per bank write bursts
system.mem_ctrls.perBankWrBursts::5              6220                       # Per bank write bursts
system.mem_ctrls.perBankWrBursts::6              7063                       # Per bank write bursts
system.mem_ctrls.perBankWrBursts::7              6210                       # Per bank write bursts
system.mem_ctrls.perBankWrBursts::8              6279                       # Per bank write bursts
system.mem_ctrls.perBankWrBursts::9              6028                       # Per bank write bursts
system.mem_ctrls.perBankWrBursts::10             6221                       # Per bank write bursts
system.mem_ctrls.perBankWrBursts::11             6339                       # Per bank write bursts
system.mem_ctrls.perBankWrBursts::12             6273                       # Per bank write bursts
system.mem_ctrls.perBankWrBursts::13             6337                       # Per bank write bursts
system.mem_ctrls.perBankWrBursts::14             6338                       # Per bank write bursts
system.mem_ctrls.perBankWrBursts::15             6528                       # Per bank write bursts
system.mem_ctrls.numRdRetry                         0                       # Number of times read queue was full causing retry
system.mem_ctrls.numWrRetry                         0                       # Number of times write queue was full causing retry
system.mem_ctrls.totGap                  2929682359500                       # Total gap between requests
system.mem_ctrls.readPktSize::0                     0                       # Read request sizes (log2)
system.mem_ctrls.readPktSize::1                     0                       # Read request sizes (log2)
system.mem_ctrls.readPktSize::2                     0                       # Read request sizes (log2)
system.mem_ctrls.readPktSize::3                     0                       # Read request sizes (log2)
system.mem_ctrls.readPktSize::4                     0                       # Read request sizes (log2)
system.mem_ctrls.readPktSize::5                     0                       # Read request sizes (log2)
system.mem_ctrls.readPktSize::6                141044                       # Read request sizes (log2)
system.mem_ctrls.writePktSize::0                    0                       # Write request sizes (log2)
system.mem_ctrls.writePktSize::1                    0                       # Write request sizes (log2)
system.mem_ctrls.writePktSize::2                    0                       # Write request sizes (log2)
system.mem_ctrls.writePktSize::3                    0                       # Write request sizes (log2)
system.mem_ctrls.writePktSize::4                    0                       # Write request sizes (log2)
system.mem_ctrls.writePktSize::5                    0                       # Write request sizes (log2)
system.mem_ctrls.writePktSize::6               101436                       # Write request sizes (log2)
system.mem_ctrls.rdQLenPdf::0                  139421                       # What read queue length does an incoming req see
system.mem_ctrls.rdQLenPdf::1                    1606                       # What read queue length does an incoming req see
system.mem_ctrls.rdQLenPdf::2                       4                       # What read queue length does an incoming req see
system.mem_ctrls.rdQLenPdf::3                       0                       # What read queue length does an incoming req see
system.mem_ctrls.rdQLenPdf::4                       0                       # What read queue length does an incoming req see
system.mem_ctrls.rdQLenPdf::5                       0                       # What read queue length does an incoming req see
system.mem_ctrls.rdQLenPdf::6                       0                       # What read queue length does an incoming req see
system.mem_ctrls.rdQLenPdf::7                       0                       # What read queue length does an incoming req see
system.mem_ctrls.rdQLenPdf::8                       0                       # What read queue length does an incoming req see
system.mem_ctrls.rdQLenPdf::9                       0                       # What read queue length does an incoming req see
system.mem_ctrls.rdQLenPdf::10                      0                       # What read queue length does an incoming req see
system.mem_ctrls.rdQLenPdf::11                      0                       # What read queue length does an incoming req see
system.mem_ctrls.rdQLenPdf::12                      0                       # What read queue length does an incoming req see
system.mem_ctrls.rdQLenPdf::13                      0                       # What read queue length does an incoming req see
system.mem_ctrls.rdQLenPdf::14                      0                       # What read queue length does an incoming req see
system.mem_ctrls.rdQLenPdf::15                      0                       # What read queue length does an incoming req see
system.mem_ctrls.rdQLenPdf::16                      0                       # What read queue length does an incoming req see
system.mem_ctrls.rdQLenPdf::17                      0                       # What read queue length does an incoming req see
system.mem_ctrls.rdQLenPdf::18                      0                       # What read queue length does an incoming req see
system.mem_ctrls.rdQLenPdf::19                      0                       # What read queue length does an incoming req see
system.mem_ctrls.rdQLenPdf::20                      0                       # What read queue length does an incoming req see
system.mem_ctrls.rdQLenPdf::21                      0                       # What read queue length does an incoming req see
system.mem_ctrls.rdQLenPdf::22                      0                       # What read queue length does an incoming req see
system.mem_ctrls.rdQLenPdf::23                      0                       # What read queue length does an incoming req see
system.mem_ctrls.rdQLenPdf::24                      0                       # What read queue length does an incoming req see
system.mem_ctrls.rdQLenPdf::25                      0                       # What read queue length does an incoming req see
system.mem_ctrls.rdQLenPdf::26                      0                       # What read queue length does an incoming req see
system.mem_ctrls.rdQLenPdf::27                      0                       # What read queue length does an incoming req see
system.mem_ctrls.rdQLenPdf::28                      0                       # What read queue length does an incoming req see
system.mem_ctrls.rdQLenPdf::29                      0                       # What read queue length does an incoming req see
system.mem_ctrls.rdQLenPdf::30                      0                       # What read queue length does an incoming req see
system.mem_ctrls.rdQLenPdf::31                      0                       # What read queue length does an incoming req see
system.mem_ctrls.wrQLenPdf::0                       1                       # What write queue length does an incoming req see
system.mem_ctrls.wrQLenPdf::1                       1                       # What write queue length does an incoming req see
system.mem_ctrls.wrQLenPdf::2                       1                       # What write queue length does an incoming req see
system.mem_ctrls.wrQLenPdf::3                       1                       # What write queue length does an incoming req see
system.mem_ctrls.wrQLenPdf::4                       1                       # What write queue length does an incoming req see
system.mem_ctrls.wrQLenPdf::5                       1                       # What write queue length does an incoming req see
system.mem_ctrls.wrQLenPdf::6                       1                       # What write queue length does an incoming req see
system.mem_ctrls.wrQLenPdf::7                       1                       # What write queue length does an incoming req see
system.mem_ctrls.wrQLenPdf::8                       1                       # What write queue length does an incoming req see
system.mem_ctrls.wrQLenPdf::9                       1                       # What write queue length does an incoming req see
system.mem_ctrls.wrQLenPdf::10                      1                       # What write queue length does an incoming req see
system.mem_ctrls.wrQLenPdf::11                      1                       # What write queue length does an incoming req see
system.mem_ctrls.wrQLenPdf::12                      1                       # What write queue length does an incoming req see
system.mem_ctrls.wrQLenPdf::13                      1                       # What write queue length does an incoming req see
system.mem_ctrls.wrQLenPdf::14                      1                       # What write queue length does an incoming req see
system.mem_ctrls.wrQLenPdf::15                    549                       # What write queue length does an incoming req see
system.mem_ctrls.wrQLenPdf::16                    565                       # What write queue length does an incoming req see
system.mem_ctrls.wrQLenPdf::17                   6246                       # What write queue length does an incoming req see
system.mem_ctrls.wrQLenPdf::18                   6272                       # What write queue length does an incoming req see
system.mem_ctrls.wrQLenPdf::19                   6271                       # What write queue length does an incoming req see
system.mem_ctrls.wrQLenPdf::20                   6360                       # What write queue length does an incoming req see
system.mem_ctrls.wrQLenPdf::21                   6276                       # What write queue length does an incoming req see
system.mem_ctrls.wrQLenPdf::22                   6282                       # What write queue length does an incoming req see
system.mem_ctrls.wrQLenPdf::23                   6285                       # What write queue length does an incoming req see
system.mem_ctrls.wrQLenPdf::24                   6254                       # What write queue length does an incoming req see
system.mem_ctrls.wrQLenPdf::25                   6272                       # What write queue length does an incoming req see
system.mem_ctrls.wrQLenPdf::26                   6282                       # What write queue length does an incoming req see
system.mem_ctrls.wrQLenPdf::27                   6257                       # What write queue length does an incoming req see
system.mem_ctrls.wrQLenPdf::28                   6247                       # What write queue length does an incoming req see
system.mem_ctrls.wrQLenPdf::29                   6247                       # What write queue length does an incoming req see
system.mem_ctrls.wrQLenPdf::30                   6251                       # What write queue length does an incoming req see
system.mem_ctrls.wrQLenPdf::31                   6251                       # What write queue length does an incoming req see
system.mem_ctrls.wrQLenPdf::32                   6242                       # What write queue length does an incoming req see
system.mem_ctrls.wrQLenPdf::33                      3                       # What write queue length does an incoming req see
system.mem_ctrls.wrQLenPdf::34                      2                       # What write queue length does an incoming req see
system.mem_ctrls.wrQLenPdf::35                      2                       # What write queue length does an incoming req see
system.mem_ctrls.wrQLenPdf::36                      2                       # What write queue length does an incoming req see
system.mem_ctrls.wrQLenPdf::37                      1                       # What write queue length does an incoming req see
system.mem_ctrls.wrQLenPdf::38                      1                       # What write queue length does an incoming req see
system.mem_ctrls.wrQLenPdf::39                      1                       # What write queue length does an incoming req see
system.mem_ctrls.wrQLenPdf::40                      0                       # What write queue length does an incoming req see
system.mem_ctrls.wrQLenPdf::41                      0                       # What write queue length does an incoming req see
system.mem_ctrls.wrQLenPdf::42                      0                       # What write queue length does an incoming req see
system.mem_ctrls.wrQLenPdf::43                      0                       # What write queue length does an incoming req see
system.mem_ctrls.wrQLenPdf::44                      0                       # What write queue length does an incoming req see
system.mem_ctrls.wrQLenPdf::45                      0                       # What write queue length does an incoming req see
system.mem_ctrls.wrQLenPdf::46                      0                       # What write queue length does an incoming req see
system.mem_ctrls.wrQLenPdf::47                      0                       # What write queue length does an incoming req see
system.mem_ctrls.wrQLenPdf::48                      0                       # What write queue length does an incoming req see
system.mem_ctrls.wrQLenPdf::49                      0                       # What write queue length does an incoming req see
system.mem_ctrls.wrQLenPdf::50                      0                       # What write queue length does an incoming req see
system.mem_ctrls.wrQLenPdf::51                      0                       # What write queue length does an incoming req see
system.mem_ctrls.wrQLenPdf::52                      0                       # What write queue length does an incoming req see
system.mem_ctrls.wrQLenPdf::53                      0                       # What write queue length does an incoming req see
system.mem_ctrls.wrQLenPdf::54                      0                       # What write queue length does an incoming req see
system.mem_ctrls.wrQLenPdf::55                      0                       # What write queue length does an incoming req see
system.mem_ctrls.wrQLenPdf::56                      0                       # What write queue length does an incoming req see
system.mem_ctrls.wrQLenPdf::57                      0                       # What write queue length does an incoming req see
system.mem_ctrls.wrQLenPdf::58                      0                       # What write queue length does an incoming req see
system.mem_ctrls.wrQLenPdf::59                      0                       # What write queue length does an incoming req see
system.mem_ctrls.wrQLenPdf::60                      0                       # What write queue length does an incoming req see
system.mem_ctrls.wrQLenPdf::61                      0                       # What write queue length does an incoming req see
system.mem_ctrls.wrQLenPdf::62                      0                       # What write queue length does an incoming req see
system.mem_ctrls.wrQLenPdf::63                      0                       # What write queue length does an incoming req see
system.mem_ctrls.bytesPerActivate::samples        31448                       # Bytes accessed per row activation
system.mem_ctrls.bytesPerActivate::mean    493.393030                       # Bytes accessed per row activation
system.mem_ctrls.bytesPerActivate::gmean   266.969227                       # Bytes accessed per row activation
system.mem_ctrls.bytesPerActivate::stdev   438.278610                       # Bytes accessed per row activation
system.mem_ctrls.bytesPerActivate::0-127        10417     33.12%     33.12% # Bytes accessed per row activation
system.mem_ctrls.bytesPerActivate::128-255         5023     15.97%     49.10% # Bytes accessed per row activation
system.mem_ctrls.bytesPerActivate::256-383         1636      5.20%     54.30% # Bytes accessed per row activation
system.mem_ctrls.bytesPerActivate::384-511          858      2.73%     57.03% # Bytes accessed per row activation
system.mem_ctrls.bytesPerActivate::512-639          543      1.73%     58.75% # Bytes accessed per row activation
system.mem_ctrls.bytesPerActivate::640-767          427      1.36%     60.11% # Bytes accessed per row activation
system.mem_ctrls.bytesPerActivate::768-895          375      1.19%     61.30% # Bytes accessed per row activation
system.mem_ctrls.bytesPerActivate::896-1023          524      1.67%     62.97% # Bytes accessed per row activation
system.mem_ctrls.bytesPerActivate::1024-1151        11645     37.03%    100.00% # Bytes accessed per row activation
system.mem_ctrls.bytesPerActivate::total        31448                       # Bytes accessed per row activation
system.mem_ctrls.rdPerTurnAround::samples         6241                       # Reads before turning the bus around for writes
system.mem_ctrls.rdPerTurnAround::mean      25.117289                       # Reads before turning the bus around for writes
system.mem_ctrls.rdPerTurnAround::stdev    326.858323                       # Reads before turning the bus around for writes
system.mem_ctrls.rdPerTurnAround::0-1023         6230     99.82%     99.82% # Reads before turning the bus around for writes
system.mem_ctrls.rdPerTurnAround::1024-2047            5      0.08%     99.90% # Reads before turning the bus around for writes
system.mem_ctrls.rdPerTurnAround::2048-3071            3      0.05%     99.95% # Reads before turning the bus around for writes
system.mem_ctrls.rdPerTurnAround::3072-4095            1      0.02%     99.97% # Reads before turning the bus around for writes
system.mem_ctrls.rdPerTurnAround::16384-17407            1      0.02%     99.98% # Reads before turning the bus around for writes
system.mem_ctrls.rdPerTurnAround::18432-19455            1      0.02%    100.00% # Reads before turning the bus around for writes
system.mem_ctrls.rdPerTurnAround::total          6241                       # Reads before turning the bus around for writes
system.mem_ctrls.wrPerTurnAround::samples         6241                       # Writes before turning the bus around for reads
system.mem_ctrls.wrPerTurnAround::mean      16.248358                       # Writes before turning the bus around for reads
system.mem_ctrls.wrPerTurnAround::gmean     16.225244                       # Writes before turning the bus around for reads
system.mem_ctrls.wrPerTurnAround::stdev      0.954497                       # Writes before turning the bus around for reads
system.mem_ctrls.wrPerTurnAround::16             5686     91.11%     91.11% # Writes before turning the bus around for reads
system.mem_ctrls.wrPerTurnAround::17                4      0.06%     91.17% # Writes before turning the bus around for reads
system.mem_ctrls.wrPerTurnAround::18              404      6.47%     97.64% # Writes before turning the bus around for reads
system.mem_ctrls.wrPerTurnAround::19               36      0.58%     98.22% # Writes before turning the bus around for reads
system.mem_ctrls.wrPerTurnAround::20               19      0.30%     98.53% # Writes before turning the bus around for reads
system.mem_ctrls.wrPerTurnAround::21               54      0.87%     99.39% # Writes before turning the bus around for reads
system.mem_ctrls.wrPerTurnAround::22               15      0.24%     99.63% # Writes before turning the bus around for reads
system.mem_ctrls.wrPerTurnAround::23               19      0.30%     99.94% # Writes before turning the bus around for reads
system.mem_ctrls.wrPerTurnAround::24                1      0.02%     99.95% # Writes before turning the bus around for reads
system.mem_ctrls.wrPerTurnAround::33                1      0.02%     99.97% # Writes before turning the bus around for reads
system.mem_ctrls.wrPerTurnAround::34                2      0.03%    100.00% # Writes before turning the bus around for reads
system.mem_ctrls.wrPerTurnAround::total          6241                       # Writes before turning the bus around for reads
system.mem_ctrls.totQLat                   1479432737                       # Total ticks spent queuing
system.mem_ctrls.totMemAccLat              4123763987                       # Total ticks spent from burst creation until serviced by the DRAM
system.mem_ctrls.totBusLat                  705155000                       # Total ticks spent in databus transfers
system.mem_ctrls.avgQLat                     10490.12                       # Average queueing delay per DRAM burst
system.mem_ctrls.avgBusLat                    5000.00                       # Average bus latency per DRAM burst
system.mem_ctrls.avgMemAccLat                29240.12                       # Average memory access latency per DRAM burst
system.mem_ctrls.avgRdBW                         3.08                       # Average DRAM read bandwidth in MiByte/s
system.mem_ctrls.avgWrBW                         2.22                       # Average achieved write bandwidth in MiByte/s
system.mem_ctrls.avgRdBWSys                      3.08                       # Average system read bandwidth in MiByte/s
system.mem_ctrls.avgWrBWSys                      2.22                       # Average system write bandwidth in MiByte/s
system.mem_ctrls.peakBW                      12800.00                       # Theoretical peak bandwidth in MiByte/s
system.mem_ctrls.busUtil                         0.04                       # Data bus utilization in percentage
system.mem_ctrls.busUtilRead                     0.02                       # Data bus utilization in percentage for reads
system.mem_ctrls.busUtilWrite                    0.02                       # Data bus utilization in percentage for writes
system.mem_ctrls.avgRdQLen                       1.00                       # Average read queue length when enqueuing
system.mem_ctrls.avgWrQLen                      27.56                       # Average write queue length when enqueuing
system.mem_ctrls.readRowHits                   116201                       # Number of row buffer hits during reads
system.mem_ctrls.writeRowHits                   94789                       # Number of row buffer hits during writes
system.mem_ctrls.readRowHitRate                 82.39                       # Row buffer hit rate for reads
system.mem_ctrls.writeRowHitRate                93.45                       # Row buffer hit rate for writes
system.mem_ctrls.avgGap                   12082160.84                       # Average gap between requests
system.mem_ctrls.pageHitRate                    87.02                       # Row buffer hit rate, read and write combined
system.mem_ctrls_0.actEnergy                142800840                       # Energy for activate commands per rank (pJ)
system.mem_ctrls_0.preEnergy                 77917125                       # Energy for precharge commands per rank (pJ)
system.mem_ctrls_0.readEnergy               623922000                       # Energy for read commands per rank (pJ)
system.mem_ctrls_0.writeEnergy              330888240                       # Energy for write commands per rank (pJ)
system.mem_ctrls_0.refreshEnergy         191599980000                       # Energy for refresh commands per rank (pJ)
system.mem_ctrls_0.actBackEnergy          84003922710                       # Energy for active background per rank (pJ)
system.mem_ctrls_0.preBackEnergy         1686394308750                       # Energy for precharge background per rank (pJ)
system.mem_ctrls_0.totalEnergy           1963173739665                       # Total energy per rank (pJ)
system.mem_ctrls_0.averagePower            669.232610                       # Core power per rank (mW)
system.mem_ctrls_0.memoryStateTime::IDLE 2803782087250                       # Time in different power states
system.mem_ctrls_0.memoryStateTime::REF   97828640000                       # Time in different power states
system.mem_ctrls_0.memoryStateTime::PRE_PDN            0                       # Time in different power states
system.mem_ctrls_0.memoryStateTime::ACT   28074829000                       # Time in different power states
system.mem_ctrls_0.memoryStateTime::ACT_PDN            0                       # Time in different power states
system.mem_ctrls_1.actEnergy                126380520                       # Energy for activate commands per rank (pJ)
system.mem_ctrls_1.preEnergy                 68957625                       # Energy for precharge commands per rank (pJ)
system.mem_ctrls_1.readEnergy               607066200                       # Energy for read commands per rank (pJ)
system.mem_ctrls_1.writeEnergy              326222640                       # Energy for write commands per rank (pJ)
system.mem_ctrls_1.refreshEnergy         191599980000                       # Energy for refresh commands per rank (pJ)
system.mem_ctrls_1.actBackEnergy          80492130765                       # Energy for active background per rank (pJ)
system.mem_ctrls_1.preBackEnergy         1689474828000                       # Energy for precharge background per rank (pJ)
system.mem_ctrls_1.totalEnergy           1962695565750                       # Total energy per rank (pJ)
system.mem_ctrls_1.averagePower            669.069604                       # Core power per rank (mW)
system.mem_ctrls_1.memoryStateTime::IDLE 2808975197250                       # Time in different power states
system.mem_ctrls_1.memoryStateTime::REF   97828640000                       # Time in different power states
system.mem_ctrls_1.memoryStateTime::PRE_PDN            0                       # Time in different power states
system.mem_ctrls_1.memoryStateTime::ACT   22881630750                       # Time in different power states
system.mem_ctrls_1.memoryStateTime::ACT_PDN            0                       # Time in different power states
system.cpu_voltage_domain.voltage                   1                       # Voltage in Volts
system.cpu_clk_domain.clock                       500                       # Clock period in ticks
system.cpu0.apic_clk_domain.clock                8000                       # Clock period in ticks
system.cpu0.numCycles                      5861305713                       # number of cpu cycles simulated
system.cpu0.numWorkItemsStarted                     0                       # number of work items this cpu started
system.cpu0.numWorkItemsCompleted                   0                       # number of work items this cpu completed
system.cpu0.kern.inst.arm                           0                       # number of arm instructions executed
system.cpu0.kern.inst.quiesce                       0                       # number of quiesce instructions executed
system.cpu0.committedInsts                  769067075                       # Number of instructions committed
system.cpu0.committedOps                   1298377205                       # Number of ops (including micro ops) committed
system.cpu0.num_int_alu_accesses           1004514340                       # Number of integer alu accesses
system.cpu0.num_fp_alu_accesses             478382410                       # Number of float alu accesses
system.cpu0.num_func_calls                   18412402                       # number of times a function call or return occured
system.cpu0.num_conditional_control_insts     87016241                       # number of instructions that are conditional controls
system.cpu0.num_int_insts                  1004514340                       # number of integer instructions
system.cpu0.num_fp_insts                    478382410                       # number of float instructions
system.cpu0.num_int_register_reads         2138943542                       # number of times the integer registers were read
system.cpu0.num_int_register_writes         694397712                       # number of times the integer registers were written
system.cpu0.num_fp_register_reads           753608654                       # number of times the floating registers were read
system.cpu0.num_fp_register_writes          391448776                       # number of times the floating registers were written
system.cpu0.num_cc_register_reads           738060187                       # number of times the CC registers were read
system.cpu0.num_cc_register_writes          279050719                       # number of times the CC registers were written
system.cpu0.num_mem_refs                    330870136                       # number of memory refs
system.cpu0.num_load_insts                  244749566                       # Number of load instructions
system.cpu0.num_store_insts                  86120570                       # Number of store instructions
system.cpu0.num_idle_cycles              2896208290.313990                       # Number of idle cycles
system.cpu0.num_busy_cycles              2965097422.686010                       # Number of busy cycles
system.cpu0.not_idle_fraction                0.505877                       # Percentage of non-idle cycles
system.cpu0.idle_fraction                    0.494123                       # Percentage of idle cycles
system.cpu0.Branches                        117940984                       # Number of branches fetched
system.cpu0.op_class::No_OpClass              1922332      0.15%      0.15% # Class of executed instruction
system.cpu0.op_class::IntAlu                756466743     58.26%     58.41% # Class of executed instruction
system.cpu0.op_class::IntMult                 2606706      0.20%     58.61% # Class of executed instruction
system.cpu0.op_class::IntDiv                 11364188      0.88%     59.49% # Class of executed instruction
system.cpu0.op_class::FloatAdd              194499738     14.98%     74.47% # Class of executed instruction
system.cpu0.op_class::FloatCmp                      0      0.00%     74.47% # Class of executed instruction
system.cpu0.op_class::FloatCvt                      0      0.00%     74.47% # Class of executed instruction
system.cpu0.op_class::FloatMult                     0      0.00%     74.47% # Class of executed instruction
system.cpu0.op_class::FloatDiv                 647502      0.05%     74.52% # Class of executed instruction
system.cpu0.op_class::FloatSqrt                     0      0.00%     74.52% # Class of executed instruction
system.cpu0.op_class::SimdAdd                       0      0.00%     74.52% # Class of executed instruction
system.cpu0.op_class::SimdAddAcc                    0      0.00%     74.52% # Class of executed instruction
system.cpu0.op_class::SimdAlu                       0      0.00%     74.52% # Class of executed instruction
system.cpu0.op_class::SimdCmp                       0      0.00%     74.52% # Class of executed instruction
system.cpu0.op_class::SimdCvt                       0      0.00%     74.52% # Class of executed instruction
system.cpu0.op_class::SimdMisc                      0      0.00%     74.52% # Class of executed instruction
system.cpu0.op_class::SimdMult                      0      0.00%     74.52% # Class of executed instruction
system.cpu0.op_class::SimdMultAcc                   0      0.00%     74.52% # Class of executed instruction
system.cpu0.op_class::SimdShift                     0      0.00%     74.52% # Class of executed instruction
system.cpu0.op_class::SimdShiftAcc                  0      0.00%     74.52% # Class of executed instruction
system.cpu0.op_class::SimdSqrt                      0      0.00%     74.52% # Class of executed instruction
system.cpu0.op_class::SimdFloatAdd                  0      0.00%     74.52% # Class of executed instruction
system.cpu0.op_class::SimdFloatAlu                  0      0.00%     74.52% # Class of executed instruction
system.cpu0.op_class::SimdFloatCmp                  0      0.00%     74.52% # Class of executed instruction
system.cpu0.op_class::SimdFloatCvt                  0      0.00%     74.52% # Class of executed instruction
system.cpu0.op_class::SimdFloatDiv                  0      0.00%     74.52% # Class of executed instruction
system.cpu0.op_class::SimdFloatMisc                 0      0.00%     74.52% # Class of executed instruction
system.cpu0.op_class::SimdFloatMult                 0      0.00%     74.52% # Class of executed instruction
system.cpu0.op_class::SimdFloatMultAcc              0      0.00%     74.52% # Class of executed instruction
system.cpu0.op_class::SimdFloatSqrt                 0      0.00%     74.52% # Class of executed instruction
system.cpu0.op_class::MemRead               244749566     18.85%     93.37% # Class of executed instruction
system.cpu0.op_class::MemWrite               86120570      6.63%    100.00% # Class of executed instruction
system.cpu0.op_class::IprAccess                     0      0.00%    100.00% # Class of executed instruction
system.cpu0.op_class::InstPrefetch                  0      0.00%    100.00% # Class of executed instruction
system.cpu0.op_class::total                1298377345                       # Class of executed instruction
system.cpu1.apic_clk_domain.clock                8000                       # Clock period in ticks
system.cpu1.numCycles                      5856686748                       # number of cpu cycles simulated
system.cpu1.numWorkItemsStarted                     0                       # number of work items this cpu started
system.cpu1.numWorkItemsCompleted                   0                       # number of work items this cpu completed
system.cpu1.kern.inst.arm                           0                       # number of arm instructions executed
system.cpu1.kern.inst.quiesce                       0                       # number of quiesce instructions executed
system.cpu1.committedInsts                  756705374                       # Number of instructions committed
system.cpu1.committedOps                   1255956215                       # Number of ops (including micro ops) committed
system.cpu1.num_int_alu_accesses            954157026                       # Number of integer alu accesses
system.cpu1.num_fp_alu_accesses             487219146                       # Number of float alu accesses
system.cpu1.num_func_calls                   17277954                       # number of times a function call or return occured
system.cpu1.num_conditional_control_insts     85369091                       # number of instructions that are conditional controls
system.cpu1.num_int_insts                   954157026                       # number of integer instructions
system.cpu1.num_fp_insts                    487219146                       # number of float instructions
system.cpu1.num_int_register_reads         2008812477                       # number of times the integer registers were read
system.cpu1.num_int_register_writes         642617034                       # number of times the integer registers were written
system.cpu1.num_fp_register_reads           776356609                       # number of times the floating registers were read
system.cpu1.num_fp_register_writes          398572470                       # number of times the floating registers were written
system.cpu1.num_cc_register_reads           715009970                       # number of times the CC registers were read
system.cpu1.num_cc_register_writes          274176387                       # number of times the CC registers were written
system.cpu1.num_mem_refs                    315825906                       # number of memory refs
system.cpu1.num_load_insts                  234841287                       # Number of load instructions
system.cpu1.num_store_insts                  80984619                       # Number of store instructions
system.cpu1.num_idle_cycles              2949647982.530266                       # Number of idle cycles
system.cpu1.num_busy_cycles              2907038765.469734                       # Number of busy cycles
system.cpu1.not_idle_fraction                0.496362                       # Percentage of non-idle cycles
system.cpu1.idle_fraction                    0.503638                       # Percentage of idle cycles
system.cpu1.Branches                        114589481                       # Number of branches fetched
system.cpu1.op_class::No_OpClass              1565611      0.12%      0.12% # Class of executed instruction
system.cpu1.op_class::IntAlu                724137001     57.66%     57.78% # Class of executed instruction
system.cpu1.op_class::IntMult                 2140161      0.17%     57.95% # Class of executed instruction
system.cpu1.op_class::IntDiv                  8273787      0.66%     58.61% # Class of executed instruction
system.cpu1.op_class::FloatAdd              203593136     16.21%     74.82% # Class of executed instruction
system.cpu1.op_class::FloatCmp                      0      0.00%     74.82% # Class of executed instruction
system.cpu1.op_class::FloatCvt                      0      0.00%     74.82% # Class of executed instruction
system.cpu1.op_class::FloatMult                     0      0.00%     74.82% # Class of executed instruction
system.cpu1.op_class::FloatDiv                 420654      0.03%     74.85% # Class of executed instruction
system.cpu1.op_class::FloatSqrt                     0      0.00%     74.85% # Class of executed instruction
system.cpu1.op_class::SimdAdd                       0      0.00%     74.85% # Class of executed instruction
system.cpu1.op_class::SimdAddAcc                    0      0.00%     74.85% # Class of executed instruction
system.cpu1.op_class::SimdAlu                       0      0.00%     74.85% # Class of executed instruction
system.cpu1.op_class::SimdCmp                       0      0.00%     74.85% # Class of executed instruction
system.cpu1.op_class::SimdCvt                       0      0.00%     74.85% # Class of executed instruction
system.cpu1.op_class::SimdMisc                      0      0.00%     74.85% # Class of executed instruction
system.cpu1.op_class::SimdMult                      0      0.00%     74.85% # Class of executed instruction
system.cpu1.op_class::SimdMultAcc                   0      0.00%     74.85% # Class of executed instruction
system.cpu1.op_class::SimdShift                     0      0.00%     74.85% # Class of executed instruction
system.cpu1.op_class::SimdShiftAcc                  0      0.00%     74.85% # Class of executed instruction
system.cpu1.op_class::SimdSqrt                      0      0.00%     74.85% # Class of executed instruction
system.cpu1.op_class::SimdFloatAdd                  0      0.00%     74.85% # Class of executed instruction
system.cpu1.op_class::SimdFloatAlu                  0      0.00%     74.85% # Class of executed instruction
system.cpu1.op_class::SimdFloatCmp                  0      0.00%     74.85% # Class of executed instruction
system.cpu1.op_class::SimdFloatCvt                  0      0.00%     74.85% # Class of executed instruction
system.cpu1.op_class::SimdFloatDiv                  0      0.00%     74.85% # Class of executed instruction
system.cpu1.op_class::SimdFloatMisc                 0      0.00%     74.85% # Class of executed instruction
system.cpu1.op_class::SimdFloatMult                 0      0.00%     74.85% # Class of executed instruction
system.cpu1.op_class::SimdFloatMultAcc              0      0.00%     74.85% # Class of executed instruction
system.cpu1.op_class::SimdFloatSqrt                 0      0.00%     74.85% # Class of executed instruction
system.cpu1.op_class::MemRead               234841287     18.70%     93.55% # Class of executed instruction
system.cpu1.op_class::MemWrite               80984619      6.45%    100.00% # Class of executed instruction
system.cpu1.op_class::IprAccess                     0      0.00%    100.00% # Class of executed instruction
system.cpu1.op_class::InstPrefetch                  0      0.00%    100.00% # Class of executed instruction
system.cpu1.op_class::total                1255956256                       # Class of executed instruction
system.cpu2.apic_clk_domain.clock                8000                       # Clock period in ticks
system.cpu2.numCycles                      5857529411                       # number of cpu cycles simulated
system.cpu2.numWorkItemsStarted                     0                       # number of work items this cpu started
system.cpu2.numWorkItemsCompleted                   0                       # number of work items this cpu completed
system.cpu2.kern.inst.arm                           0                       # number of arm instructions executed
system.cpu2.kern.inst.quiesce                       0                       # number of quiesce instructions executed
system.cpu2.committedInsts                    3490645                       # Number of instructions committed
system.cpu2.committedOps                      7166362                       # Number of ops (including micro ops) committed
system.cpu2.num_int_alu_accesses              7039911                       # Number of integer alu accesses
system.cpu2.num_fp_alu_accesses                  1893                       # Number of float alu accesses
system.cpu2.num_func_calls                     176947                       # number of times a function call or return occured
system.cpu2.num_conditional_control_insts       598363                       # number of instructions that are conditional controls
system.cpu2.num_int_insts                     7039911                       # number of integer instructions
system.cpu2.num_fp_insts                         1893                       # number of float instructions
system.cpu2.num_int_register_reads           13966129                       # number of times the integer registers were read
system.cpu2.num_int_register_writes           5769687                       # number of times the integer registers were written
system.cpu2.num_fp_register_reads                3183                       # number of times the floating registers were read
system.cpu2.num_fp_register_writes               1511                       # number of times the floating registers were written
system.cpu2.num_cc_register_reads             4406870                       # number of times the CC registers were read
system.cpu2.num_cc_register_writes            2323612                       # number of times the CC registers were written
system.cpu2.num_mem_refs                      1574773                       # number of memory refs
system.cpu2.num_load_insts                     987004                       # Number of load instructions
system.cpu2.num_store_insts                    587769                       # Number of store instructions
system.cpu2.num_idle_cycles              5843446876.766810                       # Number of idle cycles
system.cpu2.num_busy_cycles              14082534.233190                       # Number of busy cycles
system.cpu2.not_idle_fraction                0.002404                       # Percentage of non-idle cycles
system.cpu2.idle_fraction                    0.997596                       # Percentage of idle cycles
system.cpu2.Branches                           829734                       # Number of branches fetched
system.cpu2.op_class::No_OpClass                91618      1.28%      1.28% # Class of executed instruction
system.cpu2.op_class::IntAlu                  5454847     76.12%     77.39% # Class of executed instruction
system.cpu2.op_class::IntMult                   13439      0.19%     77.58% # Class of executed instruction
system.cpu2.op_class::IntDiv                    30341      0.42%     78.01% # Class of executed instruction
system.cpu2.op_class::FloatAdd                   1434      0.02%     78.03% # Class of executed instruction
system.cpu2.op_class::FloatCmp                      0      0.00%     78.03% # Class of executed instruction
system.cpu2.op_class::FloatCvt                      0      0.00%     78.03% # Class of executed instruction
system.cpu2.op_class::FloatMult                     0      0.00%     78.03% # Class of executed instruction
system.cpu2.op_class::FloatDiv                      0      0.00%     78.03% # Class of executed instruction
system.cpu2.op_class::FloatSqrt                     0      0.00%     78.03% # Class of executed instruction
system.cpu2.op_class::SimdAdd                       0      0.00%     78.03% # Class of executed instruction
system.cpu2.op_class::SimdAddAcc                    0      0.00%     78.03% # Class of executed instruction
system.cpu2.op_class::SimdAlu                       0      0.00%     78.03% # Class of executed instruction
system.cpu2.op_class::SimdCmp                       0      0.00%     78.03% # Class of executed instruction
system.cpu2.op_class::SimdCvt                       0      0.00%     78.03% # Class of executed instruction
system.cpu2.op_class::SimdMisc                      0      0.00%     78.03% # Class of executed instruction
system.cpu2.op_class::SimdMult                      0      0.00%     78.03% # Class of executed instruction
system.cpu2.op_class::SimdMultAcc                   0      0.00%     78.03% # Class of executed instruction
system.cpu2.op_class::SimdShift                     0      0.00%     78.03% # Class of executed instruction
system.cpu2.op_class::SimdShiftAcc                  0      0.00%     78.03% # Class of executed instruction
system.cpu2.op_class::SimdSqrt                      0      0.00%     78.03% # Class of executed instruction
system.cpu2.op_class::SimdFloatAdd                  0      0.00%     78.03% # Class of executed instruction
system.cpu2.op_class::SimdFloatAlu                  0      0.00%     78.03% # Class of executed instruction
system.cpu2.op_class::SimdFloatCmp                  0      0.00%     78.03% # Class of executed instruction
system.cpu2.op_class::SimdFloatCvt                  0      0.00%     78.03% # Class of executed instruction
system.cpu2.op_class::SimdFloatDiv                  0      0.00%     78.03% # Class of executed instruction
system.cpu2.op_class::SimdFloatMisc                 0      0.00%     78.03% # Class of executed instruction
system.cpu2.op_class::SimdFloatMult                 0      0.00%     78.03% # Class of executed instruction
system.cpu2.op_class::SimdFloatMultAcc              0      0.00%     78.03% # Class of executed instruction
system.cpu2.op_class::SimdFloatSqrt                 0      0.00%     78.03% # Class of executed instruction
system.cpu2.op_class::MemRead                  987004     13.77%     91.80% # Class of executed instruction
system.cpu2.op_class::MemWrite                 587769      8.20%    100.00% # Class of executed instruction
system.cpu2.op_class::IprAccess                     0      0.00%    100.00% # Class of executed instruction
system.cpu2.op_class::InstPrefetch                  0      0.00%    100.00% # Class of executed instruction
system.cpu2.op_class::total                   7166452                       # Class of executed instruction
system.cpu3.apic_clk_domain.clock                8000                       # Clock period in ticks
system.cpu3.numCycles                      5862710654                       # number of cpu cycles simulated
system.cpu3.numWorkItemsStarted                     0                       # number of work items this cpu started
system.cpu3.numWorkItemsCompleted                   0                       # number of work items this cpu completed
system.cpu3.kern.inst.arm                           0                       # number of arm instructions executed
system.cpu3.kern.inst.quiesce                       0                       # number of quiesce instructions executed
system.cpu3.committedInsts                    2731691                       # Number of instructions committed
system.cpu3.committedOps                      5789841                       # Number of ops (including micro ops) committed
system.cpu3.num_int_alu_accesses              5677023                       # Number of integer alu accesses
system.cpu3.num_fp_alu_accesses                    39                       # Number of float alu accesses
system.cpu3.num_func_calls                     149382                       # number of times a function call or return occured
system.cpu3.num_conditional_control_insts       481704                       # number of instructions that are conditional controls
system.cpu3.num_int_insts                     5677023                       # number of integer instructions
system.cpu3.num_fp_insts                           39                       # number of float instructions
system.cpu3.num_int_register_reads           11202622                       # number of times the integer registers were read
system.cpu3.num_int_register_writes           4674446                       # number of times the integer registers were written
system.cpu3.num_fp_register_reads                  63                       # number of times the floating registers were read
system.cpu3.num_fp_register_writes                 31                       # number of times the floating registers were written
system.cpu3.num_cc_register_reads             3636316                       # number of times the CC registers were read
system.cpu3.num_cc_register_writes            1825566                       # number of times the CC registers were written
system.cpu3.num_mem_refs                      1257368                       # number of memory refs
system.cpu3.num_load_insts                     784588                       # Number of load instructions
system.cpu3.num_store_insts                    472780                       # Number of store instructions
system.cpu3.num_idle_cycles              5851573564.194380                       # Number of idle cycles
system.cpu3.num_busy_cycles              11137089.805620                       # Number of busy cycles
system.cpu3.not_idle_fraction                0.001900                       # Percentage of non-idle cycles
system.cpu3.idle_fraction                    0.998100                       # Percentage of idle cycles
system.cpu3.Branches                           677602                       # Number of branches fetched
system.cpu3.op_class::No_OpClass                90852      1.57%      1.57% # Class of executed instruction
system.cpu3.op_class::IntAlu                  4399229     75.98%     77.55% # Class of executed instruction
system.cpu3.op_class::IntMult                   10031      0.17%     77.72% # Class of executed instruction
system.cpu3.op_class::IntDiv                    32353      0.56%     78.28% # Class of executed instruction
system.cpu3.op_class::FloatAdd                     30      0.00%     78.28% # Class of executed instruction
system.cpu3.op_class::FloatCmp                      0      0.00%     78.28% # Class of executed instruction
system.cpu3.op_class::FloatCvt                      0      0.00%     78.28% # Class of executed instruction
system.cpu3.op_class::FloatMult                     0      0.00%     78.28% # Class of executed instruction
system.cpu3.op_class::FloatDiv                      0      0.00%     78.28% # Class of executed instruction
system.cpu3.op_class::FloatSqrt                     0      0.00%     78.28% # Class of executed instruction
system.cpu3.op_class::SimdAdd                       0      0.00%     78.28% # Class of executed instruction
system.cpu3.op_class::SimdAddAcc                    0      0.00%     78.28% # Class of executed instruction
system.cpu3.op_class::SimdAlu                       0      0.00%     78.28% # Class of executed instruction
system.cpu3.op_class::SimdCmp                       0      0.00%     78.28% # Class of executed instruction
system.cpu3.op_class::SimdCvt                       0      0.00%     78.28% # Class of executed instruction
system.cpu3.op_class::SimdMisc                      0      0.00%     78.28% # Class of executed instruction
system.cpu3.op_class::SimdMult                      0      0.00%     78.28% # Class of executed instruction
system.cpu3.op_class::SimdMultAcc                   0      0.00%     78.28% # Class of executed instruction
system.cpu3.op_class::SimdShift                     0      0.00%     78.28% # Class of executed instruction
system.cpu3.op_class::SimdShiftAcc                  0      0.00%     78.28% # Class of executed instruction
system.cpu3.op_class::SimdSqrt                      0      0.00%     78.28% # Class of executed instruction
system.cpu3.op_class::SimdFloatAdd                  0      0.00%     78.28% # Class of executed instruction
system.cpu3.op_class::SimdFloatAlu                  0      0.00%     78.28% # Class of executed instruction
system.cpu3.op_class::SimdFloatCmp                  0      0.00%     78.28% # Class of executed instruction
system.cpu3.op_class::SimdFloatCvt                  0      0.00%     78.28% # Class of executed instruction
system.cpu3.op_class::SimdFloatDiv                  0      0.00%     78.28% # Class of executed instruction
system.cpu3.op_class::SimdFloatMisc                 0      0.00%     78.28% # Class of executed instruction
system.cpu3.op_class::SimdFloatMult                 0      0.00%     78.28% # Class of executed instruction
system.cpu3.op_class::SimdFloatMultAcc              0      0.00%     78.28% # Class of executed instruction
system.cpu3.op_class::SimdFloatSqrt                 0      0.00%     78.28% # Class of executed instruction
system.cpu3.op_class::MemRead                  784588     13.55%     91.83% # Class of executed instruction
system.cpu3.op_class::MemWrite                 472780      8.17%    100.00% # Class of executed instruction
system.cpu3.op_class::IprAccess                     0      0.00%    100.00% # Class of executed instruction
system.cpu3.op_class::InstPrefetch                  0      0.00%    100.00% # Class of executed instruction
system.cpu3.op_class::total                   5789863                       # Class of executed instruction
system.iobus.trans_dist::ReadReq                  873                       # Transaction distribution
system.iobus.trans_dist::ReadResp                 873                       # Transaction distribution
system.iobus.trans_dist::WriteReq                4581                       # Transaction distribution
system.iobus.trans_dist::WriteResp               4581                       # Transaction distribution
system.iobus.trans_dist::MessageReq               113                       # Transaction distribution
system.iobus.trans_dist::MessageResp              113                       # Transaction distribution
system.iobus.pkt_count_system.pc.south_bridge.io_apic.int_master::system.ruby.l1_cntrl0.sequencer.pio-slave-port           52                       # Packet count per connected master and slave (bytes)
system.iobus.pkt_count_system.pc.south_bridge.io_apic.int_master::system.ruby.l1_cntrl1.sequencer.pio-slave-port           52                       # Packet count per connected master and slave (bytes)
system.iobus.pkt_count_system.pc.south_bridge.io_apic.int_master::system.ruby.l1_cntrl2.sequencer.pio-slave-port           50                       # Packet count per connected master and slave (bytes)
system.iobus.pkt_count_system.pc.south_bridge.io_apic.int_master::system.ruby.l1_cntrl3.sequencer.pio-slave-port           50                       # Packet count per connected master and slave (bytes)
system.iobus.pkt_count_system.pc.south_bridge.io_apic.int_master::total          204                       # Packet count per connected master and slave (bytes)
system.iobus.pkt_count_system.ruby.l1_cntrl0.sequencer.mem-master-port::system.pc.south_bridge.ide.pio         1150                       # Packet count per connected master and slave (bytes)
system.iobus.pkt_count_system.ruby.l1_cntrl0.sequencer.mem-master-port::system.pc.south_bridge.io_apic.pio            8                       # Packet count per connected master and slave (bytes)
system.iobus.pkt_count_system.ruby.l1_cntrl0.sequencer.mem-master-port::system.ruby.l1_cntrl0.sequencer.pio-slave-port         1554                       # Packet count per connected master and slave (bytes)
system.iobus.pkt_count_system.ruby.l1_cntrl0.sequencer.mem-master-port::system.ruby.l1_cntrl1.sequencer.pio-slave-port            6                       # Packet count per connected master and slave (bytes)
system.iobus.pkt_count_system.ruby.l1_cntrl0.sequencer.mem-master-port::system.ruby.l1_cntrl2.sequencer.pio-slave-port            2                       # Packet count per connected master and slave (bytes)
system.iobus.pkt_count_system.ruby.l1_cntrl0.sequencer.mem-master-port::system.ruby.l1_cntrl3.sequencer.pio-slave-port            2                       # Packet count per connected master and slave (bytes)
system.iobus.pkt_count_system.ruby.l1_cntrl0.sequencer.mem-master-port::total         2722                       # Packet count per connected master and slave (bytes)
system.iobus.pkt_count_system.ruby.l1_cntrl1.sequencer.mem-master-port::system.pc.south_bridge.ide.pio         1320                       # Packet count per connected master and slave (bytes)
system.iobus.pkt_count_system.ruby.l1_cntrl1.sequencer.mem-master-port::system.pc.south_bridge.io_apic.pio            8                       # Packet count per connected master and slave (bytes)
system.iobus.pkt_count_system.ruby.l1_cntrl1.sequencer.mem-master-port::system.pc.com_1.pio            2                       # Packet count per connected master and slave (bytes)
system.iobus.pkt_count_system.ruby.l1_cntrl1.sequencer.mem-master-port::system.ruby.l1_cntrl0.sequencer.pio-slave-port            2                       # Packet count per connected master and slave (bytes)
system.iobus.pkt_count_system.ruby.l1_cntrl1.sequencer.mem-master-port::system.ruby.l1_cntrl1.sequencer.pio-slave-port         1538                       # Packet count per connected master and slave (bytes)
system.iobus.pkt_count_system.ruby.l1_cntrl1.sequencer.mem-master-port::system.ruby.l1_cntrl2.sequencer.pio-slave-port            2                       # Packet count per connected master and slave (bytes)
system.iobus.pkt_count_system.ruby.l1_cntrl1.sequencer.mem-master-port::total         2872                       # Packet count per connected master and slave (bytes)
system.iobus.pkt_count_system.ruby.l1_cntrl2.sequencer.mem-master-port::system.pc.south_bridge.ide.pio         1014                       # Packet count per connected master and slave (bytes)
system.iobus.pkt_count_system.ruby.l1_cntrl2.sequencer.mem-master-port::system.ruby.l1_cntrl0.sequencer.pio-slave-port            2                       # Packet count per connected master and slave (bytes)
system.iobus.pkt_count_system.ruby.l1_cntrl2.sequencer.mem-master-port::system.ruby.l1_cntrl1.sequencer.pio-slave-port            2                       # Packet count per connected master and slave (bytes)
system.iobus.pkt_count_system.ruby.l1_cntrl2.sequencer.mem-master-port::system.ruby.l1_cntrl2.sequencer.pio-slave-port         1538                       # Packet count per connected master and slave (bytes)
system.iobus.pkt_count_system.ruby.l1_cntrl2.sequencer.mem-master-port::system.ruby.l1_cntrl3.sequencer.pio-slave-port            2                       # Packet count per connected master and slave (bytes)
system.iobus.pkt_count_system.ruby.l1_cntrl2.sequencer.mem-master-port::total         2558                       # Packet count per connected master and slave (bytes)
system.iobus.pkt_count_system.ruby.l1_cntrl3.sequencer.mem-master-port::system.pc.south_bridge.ide.pio         1070                       # Packet count per connected master and slave (bytes)
system.iobus.pkt_count_system.ruby.l1_cntrl3.sequencer.mem-master-port::system.pc.south_bridge.io_apic.pio            6                       # Packet count per connected master and slave (bytes)
system.iobus.pkt_count_system.ruby.l1_cntrl3.sequencer.mem-master-port::system.pc.com_1.pio          174                       # Packet count per connected master and slave (bytes)
system.iobus.pkt_count_system.ruby.l1_cntrl3.sequencer.mem-master-port::system.ruby.l1_cntrl0.sequencer.pio-slave-port            2                       # Packet count per connected master and slave (bytes)
system.iobus.pkt_count_system.ruby.l1_cntrl3.sequencer.mem-master-port::system.ruby.l1_cntrl3.sequencer.pio-slave-port         1526                       # Packet count per connected master and slave (bytes)
system.iobus.pkt_count_system.ruby.l1_cntrl3.sequencer.mem-master-port::total         2778                       # Packet count per connected master and slave (bytes)
system.iobus.pkt_count::total                   11134                       # Packet count per connected master and slave (bytes)
system.iobus.pkt_size_system.pc.south_bridge.io_apic.int_master::system.ruby.l1_cntrl0.sequencer.pio-slave-port          104                       # Cumulative packet size per connected master and slave (bytes)
system.iobus.pkt_size_system.pc.south_bridge.io_apic.int_master::system.ruby.l1_cntrl1.sequencer.pio-slave-port          104                       # Cumulative packet size per connected master and slave (bytes)
system.iobus.pkt_size_system.pc.south_bridge.io_apic.int_master::system.ruby.l1_cntrl2.sequencer.pio-slave-port          100                       # Cumulative packet size per connected master and slave (bytes)
system.iobus.pkt_size_system.pc.south_bridge.io_apic.int_master::system.ruby.l1_cntrl3.sequencer.pio-slave-port          100                       # Cumulative packet size per connected master and slave (bytes)
system.iobus.pkt_size_system.pc.south_bridge.io_apic.int_master::total          408                       # Cumulative packet size per connected master and slave (bytes)
system.iobus.pkt_size_system.ruby.l1_cntrl0.sequencer.mem-master-port::system.pc.south_bridge.ide.pio          650                       # Cumulative packet size per connected master and slave (bytes)
system.iobus.pkt_size_system.ruby.l1_cntrl0.sequencer.mem-master-port::system.pc.south_bridge.io_apic.pio           16                       # Cumulative packet size per connected master and slave (bytes)
system.iobus.pkt_size_system.ruby.l1_cntrl0.sequencer.mem-master-port::system.ruby.l1_cntrl0.sequencer.pio-slave-port         3108                       # Cumulative packet size per connected master and slave (bytes)
system.iobus.pkt_size_system.ruby.l1_cntrl0.sequencer.mem-master-port::system.ruby.l1_cntrl1.sequencer.pio-slave-port           12                       # Cumulative packet size per connected master and slave (bytes)
system.iobus.pkt_size_system.ruby.l1_cntrl0.sequencer.mem-master-port::system.ruby.l1_cntrl2.sequencer.pio-slave-port            4                       # Cumulative packet size per connected master and slave (bytes)
system.iobus.pkt_size_system.ruby.l1_cntrl0.sequencer.mem-master-port::system.ruby.l1_cntrl3.sequencer.pio-slave-port            4                       # Cumulative packet size per connected master and slave (bytes)
system.iobus.pkt_size_system.ruby.l1_cntrl0.sequencer.mem-master-port::total         3794                       # Cumulative packet size per connected master and slave (bytes)
system.iobus.pkt_size_system.ruby.l1_cntrl1.sequencer.mem-master-port::system.pc.south_bridge.ide.pio          750                       # Cumulative packet size per connected master and slave (bytes)
system.iobus.pkt_size_system.ruby.l1_cntrl1.sequencer.mem-master-port::system.pc.south_bridge.io_apic.pio           16                       # Cumulative packet size per connected master and slave (bytes)
system.iobus.pkt_size_system.ruby.l1_cntrl1.sequencer.mem-master-port::system.pc.com_1.pio            1                       # Cumulative packet size per connected master and slave (bytes)
system.iobus.pkt_size_system.ruby.l1_cntrl1.sequencer.mem-master-port::system.ruby.l1_cntrl0.sequencer.pio-slave-port            4                       # Cumulative packet size per connected master and slave (bytes)
system.iobus.pkt_size_system.ruby.l1_cntrl1.sequencer.mem-master-port::system.ruby.l1_cntrl1.sequencer.pio-slave-port         3076                       # Cumulative packet size per connected master and slave (bytes)
system.iobus.pkt_size_system.ruby.l1_cntrl1.sequencer.mem-master-port::system.ruby.l1_cntrl2.sequencer.pio-slave-port            4                       # Cumulative packet size per connected master and slave (bytes)
system.iobus.pkt_size_system.ruby.l1_cntrl1.sequencer.mem-master-port::total         3851                       # Cumulative packet size per connected master and slave (bytes)
system.iobus.pkt_size_system.ruby.l1_cntrl2.sequencer.mem-master-port::system.pc.south_bridge.ide.pio          570                       # Cumulative packet size per connected master and slave (bytes)
system.iobus.pkt_size_system.ruby.l1_cntrl2.sequencer.mem-master-port::system.ruby.l1_cntrl0.sequencer.pio-slave-port            4                       # Cumulative packet size per connected master and slave (bytes)
system.iobus.pkt_size_system.ruby.l1_cntrl2.sequencer.mem-master-port::system.ruby.l1_cntrl1.sequencer.pio-slave-port            4                       # Cumulative packet size per connected master and slave (bytes)
system.iobus.pkt_size_system.ruby.l1_cntrl2.sequencer.mem-master-port::system.ruby.l1_cntrl2.sequencer.pio-slave-port         3076                       # Cumulative packet size per connected master and slave (bytes)
system.iobus.pkt_size_system.ruby.l1_cntrl2.sequencer.mem-master-port::system.ruby.l1_cntrl3.sequencer.pio-slave-port            4                       # Cumulative packet size per connected master and slave (bytes)
system.iobus.pkt_size_system.ruby.l1_cntrl2.sequencer.mem-master-port::total         3658                       # Cumulative packet size per connected master and slave (bytes)
system.iobus.pkt_size_system.ruby.l1_cntrl3.sequencer.mem-master-port::system.pc.south_bridge.ide.pio          604                       # Cumulative packet size per connected master and slave (bytes)
system.iobus.pkt_size_system.ruby.l1_cntrl3.sequencer.mem-master-port::system.pc.south_bridge.io_apic.pio           12                       # Cumulative packet size per connected master and slave (bytes)
system.iobus.pkt_size_system.ruby.l1_cntrl3.sequencer.mem-master-port::system.pc.com_1.pio           87                       # Cumulative packet size per connected master and slave (bytes)
system.iobus.pkt_size_system.ruby.l1_cntrl3.sequencer.mem-master-port::system.ruby.l1_cntrl0.sequencer.pio-slave-port            4                       # Cumulative packet size per connected master and slave (bytes)
system.iobus.pkt_size_system.ruby.l1_cntrl3.sequencer.mem-master-port::system.ruby.l1_cntrl3.sequencer.pio-slave-port         3052                       # Cumulative packet size per connected master and slave (bytes)
system.iobus.pkt_size_system.ruby.l1_cntrl3.sequencer.mem-master-port::total         3759                       # Cumulative packet size per connected master and slave (bytes)
system.iobus.pkt_size::total                    15470                       # Cumulative packet size per connected master and slave (bytes)
system.iobus.reqLayer2.occupancy              3915500                       # Layer occupancy (ticks)
system.iobus.reqLayer2.utilization                0.0                       # Layer utilization (%)
system.iobus.reqLayer8.occupancy                21497                       # Layer occupancy (ticks)
system.iobus.reqLayer8.utilization                0.0                       # Layer utilization (%)
system.iobus.reqLayer12.occupancy              112000                       # Layer occupancy (ticks)
system.iobus.reqLayer12.utilization               0.0                       # Layer utilization (%)
system.iobus.reqLayer17.occupancy             2093617                       # Layer occupancy (ticks)
system.iobus.reqLayer17.utilization               0.0                       # Layer utilization (%)
system.iobus.reqLayer18.occupancy             2080112                       # Layer occupancy (ticks)
system.iobus.reqLayer18.utilization               0.0                       # Layer utilization (%)
system.iobus.reqLayer19.occupancy             1984473                       # Layer occupancy (ticks)
system.iobus.reqLayer19.utilization               0.0                       # Layer utilization (%)
system.iobus.reqLayer20.occupancy             1971476                       # Layer occupancy (ticks)
system.iobus.reqLayer20.utilization               0.0                       # Layer utilization (%)
system.iobus.respLayer0.occupancy              177401                       # Layer occupancy (ticks)
system.iobus.respLayer0.utilization               0.0                       # Layer utilization (%)
system.iobus.respLayer2.occupancy             1956500                       # Layer occupancy (ticks)
system.iobus.respLayer2.utilization               0.0                       # Layer utilization (%)
system.iobus.respLayer4.occupancy             2044500                       # Layer occupancy (ticks)
system.iobus.respLayer4.utilization               0.0                       # Layer utilization (%)
system.iobus.respLayer6.occupancy             1850500                       # Layer occupancy (ticks)
system.iobus.respLayer6.utilization               0.0                       # Layer utilization (%)
system.iobus.respLayer8.occupancy             2025500                       # Layer occupancy (ticks)
system.iobus.respLayer8.utilization               0.0                       # Layer utilization (%)
system.pc.south_bridge.ide.disks.dma_read_full_pages         1523                       # Number of full page size DMA reads (not PRD).
system.pc.south_bridge.ide.disks.dma_read_bytes      6238208                       # Number of bytes transfered via DMA reads (not PRD).
system.pc.south_bridge.ide.disks.dma_read_txs         1523                       # Number of DMA read transactions (not PRD).
system.pc.south_bridge.ide.disks.dma_write_full_pages           45                       # Number of full page size DMA writes.
system.pc.south_bridge.ide.disks.dma_write_bytes       184320                       # Number of bytes transfered via DMA writes.
system.pc.south_bridge.ide.disks.dma_write_txs           45                       # Number of DMA write transactions.
system.ruby.clk_domain.clock                      500                       # Clock period in ticks
system.ruby.outstanding_req_hist_seqr::bucket_size            1                      
system.ruby.outstanding_req_hist_seqr::max_bucket            9                      
system.ruby.outstanding_req_hist_seqr::samples   2882187403                      
system.ruby.outstanding_req_hist_seqr::mean     1.000000                      
system.ruby.outstanding_req_hist_seqr::gmean     1.000000                      
system.ruby.outstanding_req_hist_seqr::stdev     0.000262                      
system.ruby.outstanding_req_hist_seqr    |           0      0.00%      0.00% |  2882187205    100.00%    100.00% |         198      0.00%    100.00% |           0      0.00%    100.00% |           0      0.00%    100.00% |           0      0.00%    100.00% |           0      0.00%    100.00% |           0      0.00%    100.00% |           0      0.00%    100.00% |           0      0.00%    100.00%
system.ruby.outstanding_req_hist_seqr::total   2882187403                      
system.ruby.latency_hist_seqr::bucket_size          128                      
system.ruby.latency_hist_seqr::max_bucket         1279                      
system.ruby.latency_hist_seqr::samples     2882187403                      
system.ruby.latency_hist_seqr::mean          1.045962                      
system.ruby.latency_hist_seqr::gmean         1.010582                      
system.ruby.latency_hist_seqr::stdev         0.846865                      
system.ruby.latency_hist_seqr            |  2882183608    100.00%    100.00% |        2947      0.00%    100.00% |         220      0.00%    100.00% |         203      0.00%    100.00% |         340      0.00%    100.00% |          83      0.00%    100.00% |           2      0.00%    100.00% |           0      0.00%    100.00% |           0      0.00%    100.00% |           0      0.00%    100.00%
system.ruby.latency_hist_seqr::total       2882187403                      
system.ruby.hit_latency_hist_seqr::bucket_size            2                      
system.ruby.hit_latency_hist_seqr::max_bucket           19                      
system.ruby.hit_latency_hist_seqr::samples   2882045434                      
system.ruby.hit_latency_hist_seqr::mean      1.043101                      
system.ruby.hit_latency_hist_seqr::gmean     1.010389                      
system.ruby.hit_latency_hist_seqr::stdev     0.655099                      
[...]
system.ruby.L1Cache_Controller.O.Trigger_L2_to_L1I::total       630098                      
system.ruby.L1Cache_Controller.O.Other_GETX |        3242     16.74%     16.74% |        2945     15.21%     31.94% |        8396     43.35%     75.29% |        4785     24.71%    100.00%
system.ruby.L1Cache_Controller.O.Other_GETX::total        19368                      
system.ruby.L1Cache_Controller.O.Other_GETS |       12109     35.65%     35.65% |        6694     19.71%     55.36% |       10814     31.84%     87.19% |        4351     12.81%    100.00%
system.ruby.L1Cache_Controller.O.Other_GETS::total        33968                      
system.ruby.L1Cache_Controller.M.Load    |    18467922     17.54%     17.54% |    86322716     81.99%     99.53% |      356935      0.34%     99.87% |      138375      0.13%    100.00%
system.ruby.L1Cache_Controller.M.Load::total    105285948                      
system.ruby.L1Cache_Controller.M.Ifetch  |    64480803     37.42%     37.42% |   103914562     60.31%     97.73% |     3851771      2.24%     99.96% |       64862      0.04%    100.00%
system.ruby.L1Cache_Controller.M.Ifetch::total    172311998                      
system.ruby.L1Cache_Controller.M.Store   |        5584     17.81%     17.81% |       11550     36.85%     54.66% |        9216     29.40%     84.06% |        4997     15.94%    100.00%
system.ruby.L1Cache_Controller.M.Store::total        31347                      
system.ruby.L1Cache_Controller.M.L2_Replacement |         194      6.77%      6.77% |          71      2.48%      9.25% |        2600     90.75%    100.00% |           0      0.00%    100.00%
system.ruby.L1Cache_Controller.M.L2_Replacement::total         2865                      
system.ruby.L1Cache_Controller.M.L1_to_L2 |      851972     19.83%     19.83% |     3403745     79.21%     99.03% |       33267      0.77%     99.81% |        8245      0.19%    100.00%
system.ruby.L1Cache_Controller.M.L1_to_L2::total      4297229                      
system.ruby.L1Cache_Controller.M.Trigger_L2_to_L1D |      749146     19.52%     19.52% |     3083042     80.33%     99.84% |        3252      0.08%     99.93% |        2750      0.07%    100.00%
system.ruby.L1Cache_Controller.M.Trigger_L2_to_L1D::total      3838190                      
system.ruby.L1Cache_Controller.M.Trigger_L2_to_L1I |       91016     23.06%     23.06% |      301336     76.34%     99.40% |        2106      0.53%     99.93% |         272      0.07%    100.00%
system.ruby.L1Cache_Controller.M.Trigger_L2_to_L1I::total       394730                      
system.ruby.L1Cache_Controller.M.Other_GETX |         223      8.40%      8.40% |         920     34.64%     43.03% |         867     32.64%     75.68% |         646     24.32%    100.00%
system.ruby.L1Cache_Controller.M.Other_GETX::total         2656                      
system.ruby.L1Cache_Controller.M.Other_GETS |       10685     23.53%     23.53% |       17361     38.23%     61.75% |       10234     22.53%     84.29% |        7135     15.71%    100.00%
system.ruby.L1Cache_Controller.M.Other_GETS::total        45415                      
system.ruby.L1Cache_Controller.M.Merged_GETS |          23     20.35%     20.35% |          12     10.62%     30.97% |          70     61.95%     92.92% |           8      7.08%    100.00%
system.ruby.L1Cache_Controller.M.Merged_GETS::total          113                      
system.ruby.L1Cache_Controller.MM.Load   |   105401451     50.95%     50.95% |    98470349     47.60%     98.55% |     2278840      1.10%     99.65% |      719621      0.35%    100.00%
system.ruby.L1Cache_Controller.MM.Load::total    206870261                      
system.ruby.L1Cache_Controller.MM.Store  |    86984579     50.45%     50.45% |    82213251     47.69%     98.14% |     2415753      1.40%     99.54% |      786985      0.46%    100.00%
system.ruby.L1Cache_Controller.MM.Store::total    172400568                      
system.ruby.L1Cache_Controller.MM.L2_Replacement |         192      8.57%      8.57% |         208      9.29%     17.86% |        1840     82.14%    100.00% |           0      0.00%    100.00%
system.ruby.L1Cache_Controller.MM.L2_Replacement::total         2240                      
system.ruby.L1Cache_Controller.MM.L1_to_L2 |      444205     43.89%     43.89% |      510268     50.42%     94.31% |       39473      3.90%     98.21% |       18122      1.79%    100.00%
system.ruby.L1Cache_Controller.MM.L1_to_L2::total      1012068                      
system.ruby.L1Cache_Controller.MM.Trigger_L2_to_L1D |      432717     45.54%     45.54% |      489876     51.56%     97.10% |       19800      2.08%     99.18% |        7785      0.82%    100.00%
system.ruby.L1Cache_Controller.MM.Trigger_L2_to_L1D::total       950178                      
system.ruby.L1Cache_Controller.MM.Other_GETX |        5351     32.09%     32.09% |        2797     16.78%     48.87% |        6534     39.19%     88.06% |        1991     11.94%    100.00%
system.ruby.L1Cache_Controller.MM.Other_GETX::total        16673                      
system.ruby.L1Cache_Controller.MM.Other_GETS |       13857     33.34%     33.34% |       10192     24.52%     57.86% |       11389     27.40%     85.27% |        6124     14.73%    100.00%
system.ruby.L1Cache_Controller.MM.Other_GETS::total        41562                      
system.ruby.L1Cache_Controller.MM.Merged_GETS |         180     22.36%     22.36% |         254     31.55%     53.91% |         140     17.39%     71.30% |         231     28.70%    100.00%
system.ruby.L1Cache_Controller.MM.Merged_GETS::total          805                      
system.ruby.L1Cache_Controller.SR.Load   |     3484514     77.84%     77.84% |      979390     21.88%     99.72% |        8567      0.19%     99.91% |        3829      0.09%    100.00%
system.ruby.L1Cache_Controller.SR.Load::total      4476300                      
system.ruby.L1Cache_Controller.SR.Ifetch |      146178      8.33%      8.33% |     1531085     87.29%     95.62% |       45725      2.61%     98.23% |       31127      1.77%    100.00%
system.ruby.L1Cache_Controller.SR.Ifetch::total      1754115                      
system.ruby.L1Cache_Controller.SR.Store  |         633     64.39%     64.39% |         137     13.94%     78.33% |         178     18.11%     96.44% |          35      3.56%    100.00%
system.ruby.L1Cache_Controller.SR.Store::total          983                      
system.ruby.L1Cache_Controller.OR.Load   |      481099     98.67%     98.67% |         959      0.20%     98.87% |        2447      0.50%     99.37% |        3057      0.63%    100.00%
system.ruby.L1Cache_Controller.OR.Load::total       487562                      
system.ruby.L1Cache_Controller.OR.Ifetch |      603786     95.82%     95.82% |         989      0.16%     95.98% |       11842      1.88%     97.86% |       13481      2.14%    100.00%
system.ruby.L1Cache_Controller.OR.Ifetch::total       630098                      
system.ruby.L1Cache_Controller.OR.Store  |           6      2.16%      2.16% |           6      2.16%      4.32% |         182     65.47%     69.78% |          84     30.22%    100.00%
system.ruby.L1Cache_Controller.OR.Store::total          278                      
system.ruby.L1Cache_Controller.MR.Load   |      748384     19.51%     19.51% |     3082402     80.37%     99.89% |        2067      0.05%     99.94% |        2308      0.06%    100.00%
system.ruby.L1Cache_Controller.MR.Load::total      3835161                      
system.ruby.L1Cache_Controller.MR.Ifetch |       91016     23.06%     23.06% |      301336     76.34%     99.40% |        2106      0.53%     99.93% |         272      0.07%    100.00%
system.ruby.L1Cache_Controller.MR.Ifetch::total       394730                      
system.ruby.L1Cache_Controller.MR.Store  |         762     25.16%     25.16% |         640     21.13%     46.29% |        1185     39.12%     85.41% |         442     14.59%    100.00%
system.ruby.L1Cache_Controller.MR.Store::total         3029                      
system.ruby.L1Cache_Controller.MMR.Load  |      119296     40.06%     40.06% |      163575     54.92%     94.98% |       11735      3.94%     98.92% |        3211      1.08%    100.00%
system.ruby.L1Cache_Controller.MMR.Load::total       297817                      
system.ruby.L1Cache_Controller.MMR.Store |      313421     48.04%     48.04% |      326301     50.02%     98.06% |        8065      1.24%     99.30% |        4574      0.70%    100.00%
system.ruby.L1Cache_Controller.MMR.Store::total       652361                      
system.ruby.L1Cache_Controller.IM.Ack    |       12502     16.78%     16.78% |       17708     23.77%     40.55% |       28571     38.35%     78.90% |       15720     21.10%    100.00%
system.ruby.L1Cache_Controller.IM.Ack::total        74501                      
system.ruby.L1Cache_Controller.IM.Data   |        2526     39.29%     39.29% |        1381     21.48%     60.77% |        1268     19.72%     80.49% |        1254     19.51%    100.00%
system.ruby.L1Cache_Controller.IM.Data::total         6429                      
system.ruby.L1Cache_Controller.IM.Exclusive_Data |        5452     15.40%     15.40% |        9837     27.78%     43.18% |       12634     35.68%     78.87% |        7482     21.13%    100.00%
system.ruby.L1Cache_Controller.IM.Exclusive_Data::total        35405                      
system.ruby.L1Cache_Controller.SM.Other_GETX |           0      0.00%      0.00% |           0      0.00%      0.00% |           1    100.00%    100.00% |           0      0.00%    100.00%
system.ruby.L1Cache_Controller.SM.Other_GETX::total            1                      
system.ruby.L1Cache_Controller.SM.Ack    |        4682     36.80%     36.80% |        2723     21.40%     58.20% |        3565     28.02%     86.22% |        1754     13.78%    100.00%
system.ruby.L1Cache_Controller.SM.Ack::total        12724                      
system.ruby.L1Cache_Controller.SM.Data   |        4978     38.58%     38.58% |        2956     22.91%     61.49% |        3074     23.82%     85.31% |        1895     14.69%    100.00%
system.ruby.L1Cache_Controller.SM.Data::total        12903                      
system.ruby.L1Cache_Controller.OM.Ack    |         264     10.76%     10.76% |         399     16.26%     27.02% |        1203     49.02%     76.04% |         588     23.96%    100.00%
system.ruby.L1Cache_Controller.OM.Ack::total         2454                      
system.ruby.L1Cache_Controller.OM.All_acks_no_sharers |          88     10.76%     10.76% |         133     16.26%     27.02% |         401     49.02%     76.04% |         196     23.96%    100.00%
system.ruby.L1Cache_Controller.OM.All_acks_no_sharers::total          818                      
system.ruby.L1Cache_Controller.ISM.Ack   |        7576     39.41%     39.41% |        4527     23.55%     62.96% |        3497     18.19%     81.16% |        3622     18.84%    100.00%
system.ruby.L1Cache_Controller.ISM.Ack::total        19222                      
system.ruby.L1Cache_Controller.ISM.All_acks_no_sharers |        7504     38.82%     38.82% |        4337     22.43%     61.25% |        4342     22.46%     83.71% |        3149     16.29%    100.00%
system.ruby.L1Cache_Controller.ISM.All_acks_no_sharers::total        19332                      
system.ruby.L1Cache_Controller.M_W.Load  |          75      7.02%      7.02% |         162     15.15%     22.17% |         776     72.59%     94.76% |          56      5.24%    100.00%
system.ruby.L1Cache_Controller.M_W.Load::total         1069                      
system.ruby.L1Cache_Controller.M_W.Store |          13     10.24%     10.24% |           8      6.30%     16.54% |          87     68.50%     85.04% |          19     14.96%    100.00%
system.ruby.L1Cache_Controller.M_W.Store::total          127                      
system.ruby.L1Cache_Controller.M_W.Ack   |        6800     16.70%     16.70% |        6779     16.64%     33.34% |       21173     51.99%     85.33% |        5976     14.67%    100.00%
system.ruby.L1Cache_Controller.M_W.Ack::total        40728                      
system.ruby.L1Cache_Controller.M_W.All_acks_no_sharers |       20977     18.13%     18.13% |       33718     29.14%     47.28% |       46057     39.81%     87.09% |       14940     12.91%    100.00%
system.ruby.L1Cache_Controller.M_W.All_acks_no_sharers::total       115692                      
system.ruby.L1Cache_Controller.MM_W.Load |           0      0.00%      0.00% |           0      0.00%      0.00% |           2    100.00%    100.00% |           0      0.00%    100.00%
system.ruby.L1Cache_Controller.MM_W.Load::total            2                      
system.ruby.L1Cache_Controller.MM_W.Store |        1421     18.58%     18.58% |        2428     31.76%     50.34% |        2622     34.29%     84.63% |        1175     15.37%    100.00%
system.ruby.L1Cache_Controller.MM_W.Store::total         7646                      
system.ruby.L1Cache_Controller.MM_W.Ack  |        3311     17.14%     17.14% |        7054     36.51%     53.64% |        5849     30.27%     83.91% |        3108     16.09%    100.00%
system.ruby.L1Cache_Controller.MM_W.Ack::total        19322                      
system.ruby.L1Cache_Controller.MM_W.All_acks_no_sharers |        5465     15.38%     15.38% |        9845     27.71%     43.09% |       12721     35.80%     78.89% |        7501     21.11%    100.00%
system.ruby.L1Cache_Controller.MM_W.All_acks_no_sharers::total        35532                      
system.ruby.L1Cache_Controller.IS.Other_GETS |           0      0.00%      0.00% |           1     33.33%     33.33% |           0      0.00%     33.33% |           2     66.67%    100.00%
system.ruby.L1Cache_Controller.IS.Other_GETS::total            3                      
system.ruby.L1Cache_Controller.IS.Ack    |       62449     19.49%     19.49% |      100417     31.34%     50.83% |      113024     35.28%     86.11% |       44493     13.89%    100.00%
system.ruby.L1Cache_Controller.IS.Ack::total       320383                      
system.ruby.L1Cache_Controller.IS.Shared_Ack |        4112     21.88%     21.88% |        4484     23.86%     45.74% |        6962     37.04%     82.78% |        3236     17.22%    100.00%
system.ruby.L1Cache_Controller.IS.Shared_Ack::total        18794                      
system.ruby.L1Cache_Controller.IS.Data   |         156     19.48%     19.48% |         223     27.84%     47.32% |         161     20.10%     67.42% |         261     32.58%    100.00%
system.ruby.L1Cache_Controller.IS.Data::total          801                      
system.ruby.L1Cache_Controller.IS.Shared_Data |       23468     29.22%     29.22% |       18472     23.00%     52.23% |       22293     27.76%     79.99% |       16069     20.01%    100.00%
system.ruby.L1Cache_Controller.IS.Shared_Data::total        80302                      
system.ruby.L1Cache_Controller.IS.Exclusive_Data |       20990     18.12%     18.12% |       33726     29.12%     47.24% |       46144     39.84%     87.08% |       14959     12.92%    100.00%
system.ruby.L1Cache_Controller.IS.Exclusive_Data::total       115819                      
system.ruby.L1Cache_Controller.SS.Load   |         256     52.24%     52.24% |         144     29.39%     81.63% |          42      8.57%     90.20% |          48      9.80%    100.00%
system.ruby.L1Cache_Controller.SS.Load::total          490                      
system.ruby.L1Cache_Controller.SS.Ifetch |         704      7.56%      7.56% |        3899     41.86%     49.41% |        2064     22.16%     71.57% |        2648     28.43%    100.00%
system.ruby.L1Cache_Controller.SS.Ifetch::total         9315                      
system.ruby.L1Cache_Controller.SS.Store  |           9     16.98%     16.98% |           2      3.77%     20.75% |          40     75.47%     96.23% |           2      3.77%    100.00%
system.ruby.L1Cache_Controller.SS.Store::total           53                      
system.ruby.L1Cache_Controller.SS.Ack    |       25186     40.03%     40.03% |       10540     16.75%     56.78% |       20140     32.01%     88.80% |        7049     11.20%    100.00%
system.ruby.L1Cache_Controller.SS.Ack::total        62915                      
system.ruby.L1Cache_Controller.SS.Shared_Ack |        4414     17.83%     17.83% |        9491     38.33%     56.16% |        3292     13.30%     69.45% |        7563     30.55%    100.00%
system.ruby.L1Cache_Controller.SS.Shared_Ack::total        24760                      
system.ruby.L1Cache_Controller.SS.All_acks |       23623     29.13%     29.13% |       18691     23.05%     52.18% |       22451     27.69%     79.87% |       16324     20.13%    100.00%
system.ruby.L1Cache_Controller.SS.All_acks::total        81089                      
system.ruby.L1Cache_Controller.SS.All_acks_no_sharers |           1      7.14%      7.14% |           4     28.57%     35.71% |           3     21.43%     57.14% |           6     42.86%    100.00%
system.ruby.L1Cache_Controller.SS.All_acks_no_sharers::total           14                      
system.ruby.L1Cache_Controller.OI.Load   |           2     66.67%     66.67% |           0      0.00%     66.67% |           1     33.33%    100.00% |           0      0.00%    100.00%
system.ruby.L1Cache_Controller.OI.Load::total            3                      
system.ruby.L1Cache_Controller.OI.Ifetch |           0      0.00%      0.00% |           0      0.00%      0.00% |           4    100.00%    100.00% |           0      0.00%    100.00%
system.ruby.L1Cache_Controller.OI.Ifetch::total            4                      
system.ruby.L1Cache_Controller.OI.Writeback_Ack |         238     17.36%     17.36% |         754     55.00%     72.36% |         379     27.64%    100.00% |           0      0.00%    100.00%
system.ruby.L1Cache_Controller.OI.Writeback_Ack::total         1371                      
system.ruby.L1Cache_Controller.MI.Load   |           2     28.57%     28.57% |           0      0.00%     28.57% |           5     71.43%    100.00% |           0      0.00%    100.00%
system.ruby.L1Cache_Controller.MI.Load::total            7                      
system.ruby.L1Cache_Controller.MI.Store  |           0      0.00%      0.00% |           1     33.33%     33.33% |           2     66.67%    100.00% |           0      0.00%    100.00%
system.ruby.L1Cache_Controller.MI.Store::total            3                      
system.ruby.L1Cache_Controller.MI.Writeback_Ack |         386      7.56%      7.56% |         279      5.47%     13.03% |        4440     86.97%    100.00% |           0      0.00%    100.00%
system.ruby.L1Cache_Controller.MI.Writeback_Ack::total         5105                      
system.ruby.L1Cache_Controller.ST.Complete_L2_to_L1 |     3631325     58.27%     58.27% |     2510612     40.29%     98.56% |       54470      0.87%     99.44% |       34991      0.56%    100.00%
system.ruby.L1Cache_Controller.ST.Complete_L2_to_L1::total      6231398                      
system.ruby.L1Cache_Controller.OT.Complete_L2_to_L1 |     1084891     97.04%     97.04% |        1954      0.17%     97.22% |       14471      1.29%     98.51% |       16622      1.49%    100.00%
system.ruby.L1Cache_Controller.OT.Complete_L2_to_L1::total      1117938                      
system.ruby.L1Cache_Controller.MT.Complete_L2_to_L1 |      840162     19.85%     19.85% |     3384378     79.95%     99.80% |        5358      0.13%     99.93% |        3022      0.07%    100.00%
system.ruby.L1Cache_Controller.MT.Complete_L2_to_L1::total      4232920                      
system.ruby.L1Cache_Controller.MMT.Complete_L2_to_L1 |      432717     45.54%     45.54% |      489876     51.56%     97.10% |       19800      2.08%     99.18% |        7785      0.82%    100.00%
system.ruby.L1Cache_Controller.MMT.Complete_L2_to_L1::total       950178                      

---------- End Simulation Statistics   ----------
