
---------- Begin Simulation Statistics ----------
sim_seconds                                  1.703856                       # Number of seconds simulated
sim_ticks                                1703856405500                       # Number of ticks simulated
final_tick                               54044057376501                       # Number of ticks from beginning of simulation (restored from checkpoints and never reset)
sim_freq                                 1000000000000                       # Frequency of simulated ticks
host_inst_rate                                 107182                       # Simulator instruction rate (inst/s)
host_op_rate                                   159694                       # Simulator op (including micro ops) rate (op/s)
host_tick_rate                              251967021                       # Simulator tick rate (ticks/s)
host_mem_usage                                1792228                       # Number of bytes of host memory used
host_seconds                                  6762.22                       # Real time elapsed on the host
sim_insts                                   724787040                       # Number of instructions simulated
sim_ops                                    1079888023                       # Number of ops (including micro ops) simulated
system.voltage_domain.voltage                       1                       # Voltage in Volts
system.clk_domain.clock                          1000                       # Clock period in ticks
system.mem_ctrls.bytes_read::ruby.dir_cntrl0    411131840                       # Number of bytes read from this memory
system.mem_ctrls.bytes_read::total          411131840                       # Number of bytes read from this memory
system.mem_ctrls.bytes_written::ruby.dir_cntrl0    204043840                       # Number of bytes written to this memory
system.mem_ctrls.bytes_written::total       204043840                       # Number of bytes written to this memory
system.mem_ctrls.num_reads::ruby.dir_cntrl0      6423935                       # Number of read requests responded to by this memory
system.mem_ctrls.num_reads::total             6423935                       # Number of read requests responded to by this memory
system.mem_ctrls.num_writes::ruby.dir_cntrl0      3188185                       # Number of write requests responded to by this memory
system.mem_ctrls.num_writes::total            3188185                       # Number of write requests responded to by this memory
system.mem_ctrls.bw_read::ruby.dir_cntrl0    241294888                       # Total read bandwidth from this memory (bytes/s)
system.mem_ctrls.bw_read::total             241294888                       # Total read bandwidth from this memory (bytes/s)
system.mem_ctrls.bw_write::ruby.dir_cntrl0    119754129                       # Write bandwidth from this memory (bytes/s)
system.mem_ctrls.bw_write::total            119754129                       # Write bandwidth from this memory (bytes/s)
system.mem_ctrls.bw_total::ruby.dir_cntrl0    361049017                       # Total bandwidth to/from this memory (bytes/s)
system.mem_ctrls.bw_total::total            361049017                       # Total bandwidth to/from this memory (bytes/s)
system.mem_ctrls.readReqs                     6423935                       # Number of read requests accepted
system.mem_ctrls.writeReqs                    3188185                       # Number of write requests accepted
system.mem_ctrls.readBursts                   6423935                       # Number of DRAM read bursts, including those serviced by the write queue
system.mem_ctrls.writeBursts                  3188185                       # Number of DRAM write bursts, including those merged in the write queue
system.mem_ctrls.bytesReadDRAM              408042176                       # Total number of bytes read from DRAM
system.mem_ctrls.bytesReadWrQ                 3089664                       # Total number of bytes read from write queue
system.mem_ctrls.bytesWritten               204010816                       # Total number of bytes written to DRAM
system.mem_ctrls.bytesReadSys               411131840                       # Total read bytes from the system interface side
system.mem_ctrls.bytesWrittenSys            204043840                       # Total written bytes from the system interface side
system.mem_ctrls.servicedByWrQ                  48276                       # Number of DRAM read bursts serviced by the write queue
system.mem_ctrls.mergedWrBursts                   525                       # Number of DRAM write bursts merged with an existing one
system.mem_ctrls.neitherReadNorWriteReqs            0                       # Number of requests that are neither read nor write
system.mem_ctrls.perBankRdBursts::0            395487                       # Per bank write bursts
system.mem_ctrls.perBankRdBursts::1            386625                       # Per bank write bursts
system.mem_ctrls.perBankRdBursts::2            398624                       # Per bank write bursts
system.mem_ctrls.perBankRdBursts::3            399179                       # Per bank write bursts
system.mem_ctrls.perBankRdBursts::4            403116                       # Per bank write bursts
system.mem_ctrls.perBankRdBursts::5            396274                       # Per bank write bursts
system.mem_ctrls.perBankRdBursts::6            417080                       # Per bank write bursts
system.mem_ctrls.perBankRdBursts::7            404690                       # Per bank write bursts
system.mem_ctrls.perBankRdBursts::8            403900                       # Per bank write bursts
system.mem_ctrls.perBankRdBursts::9            401882                       # Per bank write bursts
system.mem_ctrls.perBankRdBursts::10           387271                       # Per bank write bursts
system.mem_ctrls.perBankRdBursts::11           402708                       # Per bank write bursts
system.mem_ctrls.perBankRdBursts::12           399554                       # Per bank write bursts
system.mem_ctrls.perBankRdBursts::13           382761                       # Per bank write bursts
system.mem_ctrls.perBankRdBursts::14           387765                       # Per bank write bursts
system.mem_ctrls.perBankRdBursts::15           408743                       # Per bank write bursts
system.mem_ctrls.perBankWrBursts::0            196022                       # Per bank write bursts
system.mem_ctrls.perBankWrBursts::1            189670                       # Per bank write bursts
system.mem_ctrls.perBankWrBursts::2            198260                       # Per bank write bursts
system.mem_ctrls.perBankWrBursts::3            198625                       # Per bank write bursts
system.mem_ctrls.perBankWrBursts::4            201403                       # Per bank write bursts
system.mem_ctrls.perBankWrBursts::5            199817                       # Per bank write bursts
system.mem_ctrls.perBankWrBursts::6            215519                       # Per bank write bursts
system.mem_ctrls.perBankWrBursts::7            207087                       # Per bank write bursts
system.mem_ctrls.perBankWrBursts::8            207642                       # Per bank write bursts
system.mem_ctrls.perBankWrBursts::9            203913                       # Per bank write bursts
system.mem_ctrls.perBankWrBursts::10           189894                       # Per bank write bursts
system.mem_ctrls.perBankWrBursts::11           197570                       # Per bank write bursts
system.mem_ctrls.perBankWrBursts::12           199662                       # Per bank write bursts
system.mem_ctrls.perBankWrBursts::13           186807                       # Per bank write bursts
system.mem_ctrls.perBankWrBursts::14           190495                       # Per bank write bursts
system.mem_ctrls.perBankWrBursts::15           205283                       # Per bank write bursts
system.mem_ctrls.numRdRetry                         0                       # Number of times read queue was full causing retry
system.mem_ctrls.numWrRetry                         0                       # Number of times write queue was full causing retry
system.mem_ctrls.totGap                  1703856340500                       # Total gap between requests
system.mem_ctrls.readPktSize::0                     0                       # Read request sizes (log2)
system.mem_ctrls.readPktSize::1                     0                       # Read request sizes (log2)
system.mem_ctrls.readPktSize::2                     0                       # Read request sizes (log2)
system.mem_ctrls.readPktSize::3                     0                       # Read request sizes (log2)
system.mem_ctrls.readPktSize::4                     0                       # Read request sizes (log2)
system.mem_ctrls.readPktSize::5                     0                       # Read request sizes (log2)
system.mem_ctrls.readPktSize::6               6423935                       # Read request sizes (log2)
system.mem_ctrls.writePktSize::0                    0                       # Write request sizes (log2)
system.mem_ctrls.writePktSize::1                    0                       # Write request sizes (log2)
system.mem_ctrls.writePktSize::2                    0                       # Write request sizes (log2)
system.mem_ctrls.writePktSize::3                    0                       # Write request sizes (log2)
system.mem_ctrls.writePktSize::4                    0                       # Write request sizes (log2)
system.mem_ctrls.writePktSize::5                    0                       # Write request sizes (log2)
system.mem_ctrls.writePktSize::6              3188185                       # Write request sizes (log2)
system.mem_ctrls.rdQLenPdf::0                 6374793                       # What read queue length does an incoming req see
system.mem_ctrls.rdQLenPdf::1                     866                       # What read queue length does an incoming req see
system.mem_ctrls.rdQLenPdf::2                       0                       # What read queue length does an incoming req see
system.mem_ctrls.rdQLenPdf::3                       0                       # What read queue length does an incoming req see
system.mem_ctrls.rdQLenPdf::4                       0                       # What read queue length does an incoming req see
system.mem_ctrls.rdQLenPdf::5                       0                       # What read queue length does an incoming req see
system.mem_ctrls.rdQLenPdf::6                       0                       # What read queue length does an incoming req see
system.mem_ctrls.rdQLenPdf::7                       0                       # What read queue length does an incoming req see
system.mem_ctrls.rdQLenPdf::8                       0                       # What read queue length does an incoming req see
system.mem_ctrls.rdQLenPdf::9                       0                       # What read queue length does an incoming req see
system.mem_ctrls.rdQLenPdf::10                      0                       # What read queue length does an incoming req see
system.mem_ctrls.rdQLenPdf::11                      0                       # What read queue length does an incoming req see
system.mem_ctrls.rdQLenPdf::12                      0                       # What read queue length does an incoming req see
system.mem_ctrls.rdQLenPdf::13                      0                       # What read queue length does an incoming req see
system.mem_ctrls.rdQLenPdf::14                      0                       # What read queue length does an incoming req see
system.mem_ctrls.rdQLenPdf::15                      0                       # What read queue length does an incoming req see
system.mem_ctrls.rdQLenPdf::16                      0                       # What read queue length does an incoming req see
system.mem_ctrls.rdQLenPdf::17                      0                       # What read queue length does an incoming req see
system.mem_ctrls.rdQLenPdf::18                      0                       # What read queue length does an incoming req see
system.mem_ctrls.rdQLenPdf::19                      0                       # What read queue length does an incoming req see
system.mem_ctrls.rdQLenPdf::20                      0                       # What read queue length does an incoming req see
system.mem_ctrls.rdQLenPdf::21                      0                       # What read queue length does an incoming req see
system.mem_ctrls.rdQLenPdf::22                      0                       # What read queue length does an incoming req see
system.mem_ctrls.rdQLenPdf::23                      0                       # What read queue length does an incoming req see
system.mem_ctrls.rdQLenPdf::24                      0                       # What read queue length does an incoming req see
system.mem_ctrls.rdQLenPdf::25                      0                       # What read queue length does an incoming req see
system.mem_ctrls.rdQLenPdf::26                      0                       # What read queue length does an incoming req see
system.mem_ctrls.rdQLenPdf::27                      0                       # What read queue length does an incoming req see
system.mem_ctrls.rdQLenPdf::28                      0                       # What read queue length does an incoming req see
system.mem_ctrls.rdQLenPdf::29                      0                       # What read queue length does an incoming req see
system.mem_ctrls.rdQLenPdf::30                      0                       # What read queue length does an incoming req see
system.mem_ctrls.rdQLenPdf::31                      0                       # What read queue length does an incoming req see
system.mem_ctrls.wrQLenPdf::0                       0                       # What write queue length does an incoming req see
system.mem_ctrls.wrQLenPdf::1                       0                       # What write queue length does an incoming req see
system.mem_ctrls.wrQLenPdf::2                       0                       # What write queue length does an incoming req see
system.mem_ctrls.wrQLenPdf::3                       0                       # What write queue length does an incoming req see
system.mem_ctrls.wrQLenPdf::4                       0                       # What write queue length does an incoming req see
system.mem_ctrls.wrQLenPdf::5                       0                       # What write queue length does an incoming req see
system.mem_ctrls.wrQLenPdf::6                       0                       # What write queue length does an incoming req see
system.mem_ctrls.wrQLenPdf::7                       0                       # What write queue length does an incoming req see
system.mem_ctrls.wrQLenPdf::8                       0                       # What write queue length does an incoming req see
system.mem_ctrls.wrQLenPdf::9                       0                       # What write queue length does an incoming req see
system.mem_ctrls.wrQLenPdf::10                      0                       # What write queue length does an incoming req see
system.mem_ctrls.wrQLenPdf::11                      0                       # What write queue length does an incoming req see
system.mem_ctrls.wrQLenPdf::12                      0                       # What write queue length does an incoming req see
system.mem_ctrls.wrQLenPdf::13                      0                       # What write queue length does an incoming req see
system.mem_ctrls.wrQLenPdf::14                      0                       # What write queue length does an incoming req see
system.mem_ctrls.wrQLenPdf::15                  49578                       # What write queue length does an incoming req see
system.mem_ctrls.wrQLenPdf::16                  62714                       # What write queue length does an incoming req see
system.mem_ctrls.wrQLenPdf::17                 145319                       # What write queue length does an incoming req see
system.mem_ctrls.wrQLenPdf::18                 189801                       # What write queue length does an incoming req see
system.mem_ctrls.wrQLenPdf::19                 196165                       # What write queue length does an incoming req see
system.mem_ctrls.wrQLenPdf::20                 197894                       # What write queue length does an incoming req see
system.mem_ctrls.wrQLenPdf::21                 198198                       # What write queue length does an incoming req see
system.mem_ctrls.wrQLenPdf::22                 198335                       # What write queue length does an incoming req see
system.mem_ctrls.wrQLenPdf::23                 198244                       # What write queue length does an incoming req see
system.mem_ctrls.wrQLenPdf::24                 197896                       # What write queue length does an incoming req see
system.mem_ctrls.wrQLenPdf::25                 197421                       # What write queue length does an incoming req see
system.mem_ctrls.wrQLenPdf::26                 196566                       # What write queue length does an incoming req see
system.mem_ctrls.wrQLenPdf::27                 195503                       # What write queue length does an incoming req see
system.mem_ctrls.wrQLenPdf::28                 194369                       # What write queue length does an incoming req see
system.mem_ctrls.wrQLenPdf::29                 194218                       # What write queue length does an incoming req see
system.mem_ctrls.wrQLenPdf::30                 192073                       # What write queue length does an incoming req see
system.mem_ctrls.wrQLenPdf::31                 190924                       # What write queue length does an incoming req see
system.mem_ctrls.wrQLenPdf::32                 191071                       # What write queue length does an incoming req see
system.mem_ctrls.wrQLenPdf::33                    930                       # What write queue length does an incoming req see
system.mem_ctrls.wrQLenPdf::34                    257                       # What write queue length does an incoming req see
system.mem_ctrls.wrQLenPdf::35                     90                       # What write queue length does an incoming req see
system.mem_ctrls.wrQLenPdf::36                     39                       # What write queue length does an incoming req see
system.mem_ctrls.wrQLenPdf::37                     21                       # What write queue length does an incoming req see
system.mem_ctrls.wrQLenPdf::38                     10                       # What write queue length does an incoming req see
system.mem_ctrls.wrQLenPdf::39                      6                       # What write queue length does an incoming req see
system.mem_ctrls.wrQLenPdf::40                      7                       # What write queue length does an incoming req see
system.mem_ctrls.wrQLenPdf::41                      4                       # What write queue length does an incoming req see
system.mem_ctrls.wrQLenPdf::42                      4                       # What write queue length does an incoming req see
system.mem_ctrls.wrQLenPdf::43                      3                       # What write queue length does an incoming req see
system.mem_ctrls.wrQLenPdf::44                      0                       # What write queue length does an incoming req see
system.mem_ctrls.wrQLenPdf::45                      0                       # What write queue length does an incoming req see
system.mem_ctrls.wrQLenPdf::46                      0                       # What write queue length does an incoming req see
system.mem_ctrls.wrQLenPdf::47                      0                       # What write queue length does an incoming req see
system.mem_ctrls.wrQLenPdf::48                      0                       # What write queue length does an incoming req see
system.mem_ctrls.wrQLenPdf::49                      0                       # What write queue length does an incoming req see
system.mem_ctrls.wrQLenPdf::50                      0                       # What write queue length does an incoming req see
system.mem_ctrls.wrQLenPdf::51                      0                       # What write queue length does an incoming req see
system.mem_ctrls.wrQLenPdf::52                      0                       # What write queue length does an incoming req see
system.mem_ctrls.wrQLenPdf::53                      0                       # What write queue length does an incoming req see
system.mem_ctrls.wrQLenPdf::54                      0                       # What write queue length does an incoming req see
system.mem_ctrls.wrQLenPdf::55                      0                       # What write queue length does an incoming req see
system.mem_ctrls.wrQLenPdf::56                      0                       # What write queue length does an incoming req see
system.mem_ctrls.wrQLenPdf::57                      0                       # What write queue length does an incoming req see
system.mem_ctrls.wrQLenPdf::58                      0                       # What write queue length does an incoming req see
system.mem_ctrls.wrQLenPdf::59                      0                       # What write queue length does an incoming req see
system.mem_ctrls.wrQLenPdf::60                      0                       # What write queue length does an incoming req see
system.mem_ctrls.wrQLenPdf::61                      0                       # What write queue length does an incoming req see
system.mem_ctrls.wrQLenPdf::62                      0                       # What write queue length does an incoming req see
system.mem_ctrls.wrQLenPdf::63                      0                       # What write queue length does an incoming req see
system.mem_ctrls.bytesPerActivate::samples      4865703                       # Bytes accessed per row activation
system.mem_ctrls.bytesPerActivate::mean    125.789090                       # Bytes accessed per row activation
system.mem_ctrls.bytesPerActivate::gmean    83.191550                       # Bytes accessed per row activation
system.mem_ctrls.bytesPerActivate::stdev   198.094930                       # Bytes accessed per row activation
system.mem_ctrls.bytesPerActivate::0-127      4078262     83.82%     83.82% # Bytes accessed per row activation
system.mem_ctrls.bytesPerActivate::128-255       332664      6.84%     90.65% # Bytes accessed per row activation
system.mem_ctrls.bytesPerActivate::256-383       108625      2.23%     92.89% # Bytes accessed per row activation
system.mem_ctrls.bytesPerActivate::384-511        66996      1.38%     94.26% # Bytes accessed per row activation
system.mem_ctrls.bytesPerActivate::512-639        44817      0.92%     95.18% # Bytes accessed per row activation
system.mem_ctrls.bytesPerActivate::640-767        32722      0.67%     95.86% # Bytes accessed per row activation
system.mem_ctrls.bytesPerActivate::768-895        29797      0.61%     96.47% # Bytes accessed per row activation
system.mem_ctrls.bytesPerActivate::896-1023        16490      0.34%     96.81% # Bytes accessed per row activation
system.mem_ctrls.bytesPerActivate::1024-1151       155330      3.19%    100.00% # Bytes accessed per row activation
system.mem_ctrls.bytesPerActivate::total      4865703                       # Bytes accessed per row activation
system.mem_ctrls.rdPerTurnAround::samples       190455                       # Reads before turning the bus around for writes
system.mem_ctrls.rdPerTurnAround::mean      33.485191                       # Reads before turning the bus around for writes
system.mem_ctrls.rdPerTurnAround::stdev    576.345096                       # Reads before turning the bus around for writes
system.mem_ctrls.rdPerTurnAround::0-4095       190409     99.98%     99.98% # Reads before turning the bus around for writes
system.mem_ctrls.rdPerTurnAround::4096-8191            7      0.00%     99.98% # Reads before turning the bus around for writes
system.mem_ctrls.rdPerTurnAround::8192-12287            6      0.00%     99.98% # Reads before turning the bus around for writes
system.mem_ctrls.rdPerTurnAround::12288-16383            3      0.00%     99.98% # Reads before turning the bus around for writes
system.mem_ctrls.rdPerTurnAround::16384-20479            3      0.00%     99.99% # Reads before turning the bus around for writes
system.mem_ctrls.rdPerTurnAround::20480-24575            4      0.00%     99.99% # Reads before turning the bus around for writes
system.mem_ctrls.rdPerTurnAround::24576-28671            3      0.00%     99.99% # Reads before turning the bus around for writes
system.mem_ctrls.rdPerTurnAround::28672-32767            3      0.00%     99.99% # Reads before turning the bus around for writes
system.mem_ctrls.rdPerTurnAround::36864-40959            4      0.00%     99.99% # Reads before turning the bus around for writes
system.mem_ctrls.rdPerTurnAround::45056-49151            1      0.00%     99.99% # Reads before turning the bus around for writes
system.mem_ctrls.rdPerTurnAround::49152-53247            3      0.00%    100.00% # Reads before turning the bus around for writes
system.mem_ctrls.rdPerTurnAround::57344-61439            3      0.00%    100.00% # Reads before turning the bus around for writes
system.mem_ctrls.rdPerTurnAround::61440-65535            5      0.00%    100.00% # Reads before turning the bus around for writes
system.mem_ctrls.rdPerTurnAround::81920-86015            1      0.00%    100.00% # Reads before turning the bus around for writes
system.mem_ctrls.rdPerTurnAround::total        190455                       # Reads before turning the bus around for writes
system.mem_ctrls.wrPerTurnAround::samples       190455                       # Writes before turning the bus around for reads
system.mem_ctrls.wrPerTurnAround::mean      16.737124                       # Writes before turning the bus around for reads
system.mem_ctrls.wrPerTurnAround::gmean     16.699910                       # Writes before turning the bus around for reads
system.mem_ctrls.wrPerTurnAround::stdev      1.155551                       # Writes before turning the bus around for reads
system.mem_ctrls.wrPerTurnAround::16           125427     65.86%     65.86% # Writes before turning the bus around for reads
system.mem_ctrls.wrPerTurnAround::17             9739      5.11%     70.97% # Writes before turning the bus around for reads
system.mem_ctrls.wrPerTurnAround::18            42604     22.37%     93.34% # Writes before turning the bus around for reads
system.mem_ctrls.wrPerTurnAround::19             8134      4.27%     97.61% # Writes before turning the bus around for reads
system.mem_ctrls.wrPerTurnAround::20             2953      1.55%     99.16% # Writes before turning the bus around for reads
system.mem_ctrls.wrPerTurnAround::21              962      0.51%     99.67% # Writes before turning the bus around for reads
system.mem_ctrls.wrPerTurnAround::22              367      0.19%     99.86% # Writes before turning the bus around for reads
system.mem_ctrls.wrPerTurnAround::23              149      0.08%     99.94% # Writes before turning the bus around for reads
system.mem_ctrls.wrPerTurnAround::24               56      0.03%     99.97% # Writes before turning the bus around for reads
system.mem_ctrls.wrPerTurnAround::25               27      0.01%     99.98% # Writes before turning the bus around for reads
system.mem_ctrls.wrPerTurnAround::26               16      0.01%     99.99% # Writes before turning the bus around for reads
system.mem_ctrls.wrPerTurnAround::27                4      0.00%     99.99% # Writes before turning the bus around for reads
system.mem_ctrls.wrPerTurnAround::28                4      0.00%     99.99% # Writes before turning the bus around for reads
system.mem_ctrls.wrPerTurnAround::29                1      0.00%     99.99% # Writes before turning the bus around for reads
system.mem_ctrls.wrPerTurnAround::30                2      0.00%     99.99% # Writes before turning the bus around for reads
system.mem_ctrls.wrPerTurnAround::31                1      0.00%    100.00% # Writes before turning the bus around for reads
system.mem_ctrls.wrPerTurnAround::32                1      0.00%    100.00% # Writes before turning the bus around for reads
system.mem_ctrls.wrPerTurnAround::33                1      0.00%    100.00% # Writes before turning the bus around for reads
system.mem_ctrls.wrPerTurnAround::34                2      0.00%    100.00% # Writes before turning the bus around for reads
system.mem_ctrls.wrPerTurnAround::35                1      0.00%    100.00% # Writes before turning the bus around for reads
system.mem_ctrls.wrPerTurnAround::36                1      0.00%    100.00% # Writes before turning the bus around for reads
system.mem_ctrls.wrPerTurnAround::37                1      0.00%    100.00% # Writes before turning the bus around for reads
system.mem_ctrls.wrPerTurnAround::38                1      0.00%    100.00% # Writes before turning the bus around for reads
system.mem_ctrls.wrPerTurnAround::39                1      0.00%    100.00% # Writes before turning the bus around for reads
system.mem_ctrls.wrPerTurnAround::total        190455                       # Writes before turning the bus around for reads
system.mem_ctrls.totQLat                  96414749497                       # Total ticks spent queuing
system.mem_ctrls.totMemAccLat            215958355747                       # Total ticks spent from burst creation until serviced by the DRAM
system.mem_ctrls.totBusLat                31878295000                       # Total ticks spent in databus transfers
system.mem_ctrls.avgQLat                     15122.32                       # Average queueing delay per DRAM burst
system.mem_ctrls.avgBusLat                    5000.00                       # Average bus latency per DRAM burst
system.mem_ctrls.avgMemAccLat                33872.32                       # Average memory access latency per DRAM burst
system.mem_ctrls.avgRdBW                       239.48                       # Average DRAM read bandwidth in MiByte/s
system.mem_ctrls.avgWrBW                       119.73                       # Average achieved write bandwidth in MiByte/s
system.mem_ctrls.avgRdBWSys                    241.29                       # Average system read bandwidth in MiByte/s
system.mem_ctrls.avgWrBWSys                    119.75                       # Average system write bandwidth in MiByte/s
system.mem_ctrls.peakBW                      12800.00                       # Theoretical peak bandwidth in MiByte/s
system.mem_ctrls.busUtil                         2.81                       # Data bus utilization in percentage
system.mem_ctrls.busUtilRead                     1.87                       # Data bus utilization in percentage for reads
system.mem_ctrls.busUtilWrite                    0.94                       # Data bus utilization in percentage for writes
system.mem_ctrls.avgRdQLen                       1.00                       # Average read queue length when enqueuing
system.mem_ctrls.avgWrQLen                      25.19                       # Average write queue length when enqueuing
system.mem_ctrls.readRowHits                  3727068                       # Number of row buffer hits during reads
system.mem_ctrls.writeRowHits                  970552                       # Number of row buffer hits during writes
system.mem_ctrls.readRowHitRate                 58.46                       # Row buffer hit rate for reads
system.mem_ctrls.writeRowHitRate                30.45                       # Row buffer hit rate for writes
system.mem_ctrls.avgGap                     177261.24                       # Average gap between requests
system.mem_ctrls.pageHitRate                    49.12                       # Row buffer hit rate, read and write combined
system.mem_ctrls_0.actEnergy              18594523080                       # Energy for activate commands per rank (pJ)
system.mem_ctrls_0.preEnergy              10145821125                       # Energy for precharge commands per rank (pJ)
system.mem_ctrls_0.readEnergy             25036096800                       # Energy for read commands per rank (pJ)
system.mem_ctrls_0.writeEnergy            10409841360                       # Energy for write commands per rank (pJ)
system.mem_ctrls_0.refreshEnergy         111501271440                       # Energy for refresh commands per rank (pJ)
system.mem_ctrls_0.actBackEnergy         569786310135                       # Energy for active background per rank (pJ)
system.mem_ctrls_0.preBackEnergy         524464119000                       # Energy for precharge background per rank (pJ)
system.mem_ctrls_0.totalEnergy           1269937982940                       # Total energy per rank (pJ)
system.mem_ctrls_0.averagePower            743.903294                       # Core power per rank (mW)
system.mem_ctrls_0.memoryStateTime::IDLE 867557115250                       # Time in different power states
system.mem_ctrls_0.memoryStateTime::REF   56895540000                       # Time in different power states
system.mem_ctrls_0.memoryStateTime::PRE_PDN            0                       # Time in different power states
system.mem_ctrls_0.memoryStateTime::ACT  779406710500                       # Time in different power states
system.mem_ctrls_0.memoryStateTime::ACT_PDN            0                       # Time in different power states
system.mem_ctrls_1.actEnergy              18219244680                       # Energy for activate commands per rank (pJ)
system.mem_ctrls_1.preEnergy               9941056125                       # Energy for precharge commands per rank (pJ)
system.mem_ctrls_1.readEnergy             24814405200                       # Energy for read commands per rank (pJ)
system.mem_ctrls_1.writeEnergy            10246681440                       # Energy for write commands per rank (pJ)
system.mem_ctrls_1.refreshEnergy         111501271440                       # Energy for refresh commands per rank (pJ)
system.mem_ctrls_1.actBackEnergy         568799564895                       # Energy for active background per rank (pJ)
system.mem_ctrls_1.preBackEnergy         525329685000                       # Energy for precharge background per rank (pJ)
system.mem_ctrls_1.totalEnergy           1268851908780                       # Total energy per rank (pJ)
system.mem_ctrls_1.averagePower            743.267094                       # Core power per rank (mW)
system.mem_ctrls_1.memoryStateTime::IDLE 868719735000                       # Time in different power states
system.mem_ctrls_1.memoryStateTime::REF   56895540000                       # Time in different power states
system.mem_ctrls_1.memoryStateTime::PRE_PDN            0                       # Time in different power states
system.mem_ctrls_1.memoryStateTime::ACT  778242026250                       # Time in different power states
system.mem_ctrls_1.memoryStateTime::ACT_PDN            0                       # Time in different power states
system.cpu_voltage_domain.voltage                   1                       # Voltage in Volts
system.cpu_clk_domain.clock                       500                       # Clock period in ticks
system.cpu0.apic_clk_domain.clock                8000                       # Clock period in ticks
system.cpu0.numCycles                      3410674348                       # number of cpu cycles simulated
system.cpu0.numWorkItemsStarted                     0                       # number of work items this cpu started
system.cpu0.numWorkItemsCompleted                   0                       # number of work items this cpu completed
system.cpu0.kern.inst.arm                           0                       # number of arm instructions executed
system.cpu0.kern.inst.quiesce                       0                       # number of quiesce instructions executed
system.cpu0.committedInsts                    1401952                       # Number of instructions committed
system.cpu0.committedOps                      3047625                       # Number of ops (including micro ops) committed
system.cpu0.num_int_alu_accesses              2981971                       # Number of integer alu accesses
system.cpu0.num_fp_alu_accesses                    39                       # Number of float alu accesses
system.cpu0.num_func_calls                      89692                       # number of times a function call or return occured
system.cpu0.num_conditional_control_insts       201539                       # number of instructions that are conditional controls
system.cpu0.num_int_insts                     2981971                       # number of integer instructions
system.cpu0.num_fp_insts                           39                       # number of float instructions
system.cpu0.num_int_register_reads            6066036                       # number of times the integer registers were read
system.cpu0.num_int_register_writes           2468536                       # number of times the integer registers were written
system.cpu0.num_fp_register_reads                  63                       # number of times the floating registers were read
system.cpu0.num_fp_register_writes                 31                       # number of times the floating registers were written
system.cpu0.num_cc_register_reads             1678833                       # number of times the CC registers were read
system.cpu0.num_cc_register_writes             910871                       # number of times the CC registers were written
system.cpu0.num_mem_refs                       721405                       # number of memory refs
system.cpu0.num_load_insts                     444428                       # Number of load instructions
system.cpu0.num_store_insts                    276977                       # Number of store instructions
system.cpu0.num_idle_cycles              3404643407.248453                       # Number of idle cycles
system.cpu0.num_busy_cycles              6030940.751547                       # Number of busy cycles
system.cpu0.not_idle_fraction                0.001768                       # Percentage of non-idle cycles
system.cpu0.idle_fraction                    0.998232                       # Percentage of idle cycles
system.cpu0.Branches                           318695                       # Number of branches fetched
system.cpu0.op_class::No_OpClass                52601      1.73%      1.73% # Class of executed instruction
system.cpu0.op_class::IntAlu                  2250478     73.84%     75.57% # Class of executed instruction
system.cpu0.op_class::IntMult                    5648      0.19%     75.75% # Class of executed instruction
system.cpu0.op_class::IntDiv                    17485      0.57%     76.33% # Class of executed instruction
system.cpu0.op_class::FloatAdd                     30      0.00%     76.33% # Class of executed instruction
system.cpu0.op_class::FloatCmp                      0      0.00%     76.33% # Class of executed instruction
system.cpu0.op_class::FloatCvt                      0      0.00%     76.33% # Class of executed instruction
system.cpu0.op_class::FloatMult                     0      0.00%     76.33% # Class of executed instruction
system.cpu0.op_class::FloatDiv                      0      0.00%     76.33% # Class of executed instruction
system.cpu0.op_class::FloatSqrt                     0      0.00%     76.33% # Class of executed instruction
system.cpu0.op_class::SimdAdd                       0      0.00%     76.33% # Class of executed instruction
system.cpu0.op_class::SimdAddAcc                    0      0.00%     76.33% # Class of executed instruction
system.cpu0.op_class::SimdAlu                       0      0.00%     76.33% # Class of executed instruction
system.cpu0.op_class::SimdCmp                       0      0.00%     76.33% # Class of executed instruction
system.cpu0.op_class::SimdCvt                       0      0.00%     76.33% # Class of executed instruction
system.cpu0.op_class::SimdMisc                      0      0.00%     76.33% # Class of executed instruction
system.cpu0.op_class::SimdMult                      0      0.00%     76.33% # Class of executed instruction
system.cpu0.op_class::SimdMultAcc                   0      0.00%     76.33% # Class of executed instruction
system.cpu0.op_class::SimdShift                     0      0.00%     76.33% # Class of executed instruction
system.cpu0.op_class::SimdShiftAcc                  0      0.00%     76.33% # Class of executed instruction
system.cpu0.op_class::SimdSqrt                      0      0.00%     76.33% # Class of executed instruction
system.cpu0.op_class::SimdFloatAdd                  0      0.00%     76.33% # Class of executed instruction
system.cpu0.op_class::SimdFloatAlu                  0      0.00%     76.33% # Class of executed instruction
system.cpu0.op_class::SimdFloatCmp                  0      0.00%     76.33% # Class of executed instruction
system.cpu0.op_class::SimdFloatCvt                  0      0.00%     76.33% # Class of executed instruction
system.cpu0.op_class::SimdFloatDiv                  0      0.00%     76.33% # Class of executed instruction
system.cpu0.op_class::SimdFloatMisc                 0      0.00%     76.33% # Class of executed instruction
system.cpu0.op_class::SimdFloatMult                 0      0.00%     76.33% # Class of executed instruction
system.cpu0.op_class::SimdFloatMultAcc              0      0.00%     76.33% # Class of executed instruction
system.cpu0.op_class::SimdFloatSqrt                 0      0.00%     76.33% # Class of executed instruction
system.cpu0.op_class::MemRead                  444428     14.58%     90.91% # Class of executed instruction
system.cpu0.op_class::MemWrite                 276977      9.09%    100.00% # Class of executed instruction
system.cpu0.op_class::IprAccess                     0      0.00%    100.00% # Class of executed instruction
system.cpu0.op_class::InstPrefetch                  0      0.00%    100.00% # Class of executed instruction
system.cpu0.op_class::total                   3047647                       # Class of executed instruction
system.cpu1.apic_clk_domain.clock                8000                       # Clock period in ticks
system.cpu1.numCycles                      3409139606                       # number of cpu cycles simulated
system.cpu1.numWorkItemsStarted                     0                       # number of work items this cpu started
system.cpu1.numWorkItemsCompleted                   0                       # number of work items this cpu completed
system.cpu1.kern.inst.arm                           0                       # number of arm instructions executed
system.cpu1.kern.inst.quiesce                       0                       # number of quiesce instructions executed
system.cpu1.committedInsts                  717109028                       # Number of instructions committed
system.cpu1.committedOps                   1064314897                       # Number of ops (including micro ops) committed
system.cpu1.num_int_alu_accesses            463824859                       # Number of integer alu accesses
system.cpu1.num_fp_alu_accesses             708837843                       # Number of float alu accesses
system.cpu1.num_func_calls                     897439                       # number of times a function call or return occured
system.cpu1.num_conditional_control_insts     10828410                       # number of instructions that are conditional controls
system.cpu1.num_int_insts                   463824859                       # number of integer instructions
system.cpu1.num_fp_insts                    708837843                       # number of float instructions
system.cpu1.num_int_register_reads          971740390                       # number of times the integer registers were read
system.cpu1.num_int_register_writes         343718000                       # number of times the integer registers were written
system.cpu1.num_fp_register_reads          1593836311                       # number of times the floating registers were read
system.cpu1.num_fp_register_writes          654311799                       # number of times the floating registers were written
system.cpu1.num_cc_register_reads           111605566                       # number of times the CC registers were read
system.cpu1.num_cc_register_writes          201608068                       # number of times the CC registers were written
system.cpu1.num_mem_refs                    129328136                       # number of memory refs
system.cpu1.num_load_insts                   75428686                       # Number of load instructions
system.cpu1.num_store_insts                  53899450                       # Number of store instructions
system.cpu1.num_idle_cycles              11265912.013742                       # Number of idle cycles
system.cpu1.num_busy_cycles              3397873693.986258                       # Number of busy cycles
system.cpu1.not_idle_fraction                0.996695                       # Percentage of non-idle cycles
system.cpu1.idle_fraction                    0.003305                       # Percentage of idle cycles
system.cpu1.Branches                         12016484                       # Number of branches fetched
system.cpu1.op_class::No_OpClass               312918      0.03%      0.03% # Class of executed instruction
system.cpu1.op_class::IntAlu                431282964     40.52%     40.55% # Class of executed instruction
system.cpu1.op_class::IntMult                   88801      0.01%     40.56% # Class of executed instruction
system.cpu1.op_class::IntDiv                     1804      0.00%     40.56% # Class of executed instruction
system.cpu1.op_class::FloatAdd              503316796     47.29%     87.85% # Class of executed instruction
system.cpu1.op_class::FloatCmp                      0      0.00%     87.85% # Class of executed instruction
system.cpu1.op_class::FloatCvt                      0      0.00%     87.85% # Class of executed instruction
system.cpu1.op_class::FloatMult                     0      0.00%     87.85% # Class of executed instruction
system.cpu1.op_class::FloatDiv                      0      0.00%     87.85% # Class of executed instruction
system.cpu1.op_class::FloatSqrt                     0      0.00%     87.85% # Class of executed instruction
system.cpu1.op_class::SimdAdd                       0      0.00%     87.85% # Class of executed instruction
system.cpu1.op_class::SimdAddAcc                    0      0.00%     87.85% # Class of executed instruction
system.cpu1.op_class::SimdAlu                       0      0.00%     87.85% # Class of executed instruction
system.cpu1.op_class::SimdCmp                       0      0.00%     87.85% # Class of executed instruction
system.cpu1.op_class::SimdCvt                       0      0.00%     87.85% # Class of executed instruction
system.cpu1.op_class::SimdMisc                      0      0.00%     87.85% # Class of executed instruction
system.cpu1.op_class::SimdMult                      0      0.00%     87.85% # Class of executed instruction
system.cpu1.op_class::SimdMultAcc                   0      0.00%     87.85% # Class of executed instruction
system.cpu1.op_class::SimdShift                     0      0.00%     87.85% # Class of executed instruction
system.cpu1.op_class::SimdShiftAcc                  0      0.00%     87.85% # Class of executed instruction
system.cpu1.op_class::SimdSqrt                      0      0.00%     87.85% # Class of executed instruction
system.cpu1.op_class::SimdFloatAdd                  0      0.00%     87.85% # Class of executed instruction
system.cpu1.op_class::SimdFloatAlu                  0      0.00%     87.85% # Class of executed instruction
system.cpu1.op_class::SimdFloatCmp                  0      0.00%     87.85% # Class of executed instruction
system.cpu1.op_class::SimdFloatCvt                  0      0.00%     87.85% # Class of executed instruction
system.cpu1.op_class::SimdFloatDiv                  0      0.00%     87.85% # Class of executed instruction
system.cpu1.op_class::SimdFloatMisc                 0      0.00%     87.85% # Class of executed instruction
system.cpu1.op_class::SimdFloatMult                 0      0.00%     87.85% # Class of executed instruction
system.cpu1.op_class::SimdFloatMultAcc              0      0.00%     87.85% # Class of executed instruction
system.cpu1.op_class::SimdFloatSqrt                 0      0.00%     87.85% # Class of executed instruction
system.cpu1.op_class::MemRead                75428686      7.09%     94.94% # Class of executed instruction
system.cpu1.op_class::MemWrite               53899450      5.06%    100.00% # Class of executed instruction
system.cpu1.op_class::IprAccess                     0      0.00%    100.00% # Class of executed instruction
system.cpu1.op_class::InstPrefetch                  0      0.00%    100.00% # Class of executed instruction
system.cpu1.op_class::total                1064331419                       # Class of executed instruction
system.cpu2.apic_clk_domain.clock                8000                       # Clock period in ticks
system.cpu2.numCycles                      3407452358                       # number of cpu cycles simulated
system.cpu2.numWorkItemsStarted                     0                       # number of work items this cpu started
system.cpu2.numWorkItemsCompleted                   0                       # number of work items this cpu completed
system.cpu2.kern.inst.arm                           0                       # number of arm instructions executed
system.cpu2.kern.inst.quiesce                       0                       # number of quiesce instructions executed
system.cpu2.committedInsts                    1186752                       # Number of instructions committed
system.cpu2.committedOps                      2567293                       # Number of ops (including micro ops) committed
system.cpu2.num_int_alu_accesses              2510370                       # Number of integer alu accesses
system.cpu2.num_fp_alu_accesses                     0                       # Number of float alu accesses
system.cpu2.num_func_calls                      70834                       # number of times a function call or return occured
system.cpu2.num_conditional_control_insts       180426                       # number of instructions that are conditional controls
system.cpu2.num_int_insts                     2510370                       # number of integer instructions
system.cpu2.num_fp_insts                            0                       # number of float instructions
system.cpu2.num_int_register_reads            5101536                       # number of times the integer registers were read
system.cpu2.num_int_register_writes           2084430                       # number of times the integer registers were written
system.cpu2.num_fp_register_reads                   0                       # number of times the floating registers were read
system.cpu2.num_fp_register_writes                  0                       # number of times the floating registers were written
system.cpu2.num_cc_register_reads             1447170                       # number of times the CC registers were read
system.cpu2.num_cc_register_writes             757349                       # number of times the CC registers were written
system.cpu2.num_mem_refs                       611230                       # number of memory refs
system.cpu2.num_load_insts                     380302                       # Number of load instructions
system.cpu2.num_store_insts                    230928                       # Number of store instructions
system.cpu2.num_idle_cycles              3402410608.372615                       # Number of idle cycles
system.cpu2.num_busy_cycles              5041749.627385                       # Number of busy cycles
system.cpu2.not_idle_fraction                0.001480                       # Percentage of non-idle cycles
system.cpu2.idle_fraction                    0.998520                       # Percentage of idle cycles
system.cpu2.Branches                           274363                       # Number of branches fetched
system.cpu2.op_class::No_OpClass                48744      1.90%      1.90% # Class of executed instruction
system.cpu2.op_class::IntAlu                  1884854     73.42%     75.32% # Class of executed instruction
system.cpu2.op_class::IntMult                    5137      0.20%     75.52% # Class of executed instruction
system.cpu2.op_class::IntDiv                    17332      0.68%     76.19% # Class of executed instruction
system.cpu2.op_class::FloatAdd                      0      0.00%     76.19% # Class of executed instruction
system.cpu2.op_class::FloatCmp                      0      0.00%     76.19% # Class of executed instruction
system.cpu2.op_class::FloatCvt                      0      0.00%     76.19% # Class of executed instruction
system.cpu2.op_class::FloatMult                     0      0.00%     76.19% # Class of executed instruction
system.cpu2.op_class::FloatDiv                      0      0.00%     76.19% # Class of executed instruction
system.cpu2.op_class::FloatSqrt                     0      0.00%     76.19% # Class of executed instruction
system.cpu2.op_class::SimdAdd                       0      0.00%     76.19% # Class of executed instruction
system.cpu2.op_class::SimdAddAcc                    0      0.00%     76.19% # Class of executed instruction
system.cpu2.op_class::SimdAlu                       0      0.00%     76.19% # Class of executed instruction
system.cpu2.op_class::SimdCmp                       0      0.00%     76.19% # Class of executed instruction
system.cpu2.op_class::SimdCvt                       0      0.00%     76.19% # Class of executed instruction
system.cpu2.op_class::SimdMisc                      0      0.00%     76.19% # Class of executed instruction
system.cpu2.op_class::SimdMult                      0      0.00%     76.19% # Class of executed instruction
system.cpu2.op_class::SimdMultAcc                   0      0.00%     76.19% # Class of executed instruction
system.cpu2.op_class::SimdShift                     0      0.00%     76.19% # Class of executed instruction
system.cpu2.op_class::SimdShiftAcc                  0      0.00%     76.19% # Class of executed instruction
system.cpu2.op_class::SimdSqrt                      0      0.00%     76.19% # Class of executed instruction
system.cpu2.op_class::SimdFloatAdd                  0      0.00%     76.19% # Class of executed instruction
system.cpu2.op_class::SimdFloatAlu                  0      0.00%     76.19% # Class of executed instruction
system.cpu2.op_class::SimdFloatCmp                  0      0.00%     76.19% # Class of executed instruction
system.cpu2.op_class::SimdFloatCvt                  0      0.00%     76.19% # Class of executed instruction
system.cpu2.op_class::SimdFloatDiv                  0      0.00%     76.19% # Class of executed instruction
system.cpu2.op_class::SimdFloatMisc                 0      0.00%     76.19% # Class of executed instruction
system.cpu2.op_class::SimdFloatMult                 0      0.00%     76.19% # Class of executed instruction
system.cpu2.op_class::SimdFloatMultAcc              0      0.00%     76.19% # Class of executed instruction
system.cpu2.op_class::SimdFloatSqrt                 0      0.00%     76.19% # Class of executed instruction
system.cpu2.op_class::MemRead                  380302     14.81%     91.01% # Class of executed instruction
system.cpu2.op_class::MemWrite                 230928      8.99%    100.00% # Class of executed instruction
system.cpu2.op_class::IprAccess                     0      0.00%    100.00% # Class of executed instruction
system.cpu2.op_class::InstPrefetch                  0      0.00%    100.00% # Class of executed instruction
system.cpu2.op_class::total                   2567297                       # Class of executed instruction
system.cpu3.apic_clk_domain.clock                8000                       # Clock period in ticks
system.cpu3.numCycles                      3405518519                       # number of cpu cycles simulated
system.cpu3.numWorkItemsStarted                     0                       # number of work items this cpu started
system.cpu3.numWorkItemsCompleted                   0                       # number of work items this cpu completed
system.cpu3.kern.inst.arm                           0                       # number of arm instructions executed
system.cpu3.kern.inst.quiesce                       0                       # number of quiesce instructions executed
system.cpu3.committedInsts                    3750493                       # Number of instructions committed
system.cpu3.committedOps                      7495389                       # Number of ops (including micro ops) committed
system.cpu3.num_int_alu_accesses              7361135                       # Number of integer alu accesses
system.cpu3.num_fp_alu_accesses                  1778                       # Number of float alu accesses
system.cpu3.num_func_calls                     194714                       # number of times a function call or return occured
system.cpu3.num_conditional_control_insts       633784                       # number of instructions that are conditional controls
system.cpu3.num_int_insts                     7361135                       # number of integer instructions
system.cpu3.num_fp_insts                         1778                       # number of float instructions
system.cpu3.num_int_register_reads           14643392                       # number of times the integer registers were read
system.cpu3.num_int_register_writes           5988498                       # number of times the integer registers were written
system.cpu3.num_fp_register_reads                2988                       # number of times the floating registers were read
system.cpu3.num_fp_register_writes               1416                       # number of times the floating registers were written
system.cpu3.num_cc_register_reads             4752085                       # number of times the CC registers were read
system.cpu3.num_cc_register_writes            2558854                       # number of times the CC registers were written
system.cpu3.num_mem_refs                      1692931                       # number of memory refs
system.cpu3.num_load_insts                    1098840                       # Number of load instructions
system.cpu3.num_store_insts                    594091                       # Number of store instructions
system.cpu3.num_idle_cycles              3389568008.461220                       # Number of idle cycles
system.cpu3.num_busy_cycles              15950510.538780                       # Number of busy cycles
system.cpu3.not_idle_fraction                0.004684                       # Percentage of non-idle cycles
system.cpu3.idle_fraction                    0.995316                       # Percentage of idle cycles
system.cpu3.Branches                           862876                       # Number of branches fetched
system.cpu3.op_class::No_OpClass                53048      0.71%      0.71% # Class of executed instruction
system.cpu3.op_class::IntAlu                  5724178     76.37%     77.08% # Class of executed instruction
system.cpu3.op_class::IntMult                    6196      0.08%     77.16% # Class of executed instruction
system.cpu3.op_class::IntDiv                    17782      0.24%     77.40% # Class of executed instruction
system.cpu3.op_class::FloatAdd                   1344      0.02%     77.41% # Class of executed instruction
system.cpu3.op_class::FloatCmp                      0      0.00%     77.41% # Class of executed instruction
system.cpu3.op_class::FloatCvt                      0      0.00%     77.41% # Class of executed instruction
system.cpu3.op_class::FloatMult                     0      0.00%     77.41% # Class of executed instruction
system.cpu3.op_class::FloatDiv                      0      0.00%     77.41% # Class of executed instruction
system.cpu3.op_class::FloatSqrt                     0      0.00%     77.41% # Class of executed instruction
system.cpu3.op_class::SimdAdd                       0      0.00%     77.41% # Class of executed instruction
system.cpu3.op_class::SimdAddAcc                    0      0.00%     77.41% # Class of executed instruction
system.cpu3.op_class::SimdAlu                       0      0.00%     77.41% # Class of executed instruction
system.cpu3.op_class::SimdCmp                       0      0.00%     77.41% # Class of executed instruction
system.cpu3.op_class::SimdCvt                       0      0.00%     77.41% # Class of executed instruction
system.cpu3.op_class::SimdMisc                      0      0.00%     77.41% # Class of executed instruction
system.cpu3.op_class::SimdMult                      0      0.00%     77.41% # Class of executed instruction
system.cpu3.op_class::SimdMultAcc                   0      0.00%     77.41% # Class of executed instruction
system.cpu3.op_class::SimdShift                     0      0.00%     77.41% # Class of executed instruction
system.cpu3.op_class::SimdShiftAcc                  0      0.00%     77.41% # Class of executed instruction
system.cpu3.op_class::SimdSqrt                      0      0.00%     77.41% # Class of executed instruction
system.cpu3.op_class::SimdFloatAdd                  0      0.00%     77.41% # Class of executed instruction
system.cpu3.op_class::SimdFloatAlu                  0      0.00%     77.41% # Class of executed instruction
system.cpu3.op_class::SimdFloatCmp                  0      0.00%     77.41% # Class of executed instruction
system.cpu3.op_class::SimdFloatCvt                  0      0.00%     77.41% # Class of executed instruction
system.cpu3.op_class::SimdFloatDiv                  0      0.00%     77.41% # Class of executed instruction
system.cpu3.op_class::SimdFloatMisc                 0      0.00%     77.41% # Class of executed instruction
system.cpu3.op_class::SimdFloatMult                 0      0.00%     77.41% # Class of executed instruction
system.cpu3.op_class::SimdFloatMultAcc              0      0.00%     77.41% # Class of executed instruction
system.cpu3.op_class::SimdFloatSqrt                 0      0.00%     77.41% # Class of executed instruction
system.cpu3.op_class::MemRead                 1098840     14.66%     92.07% # Class of executed instruction
system.cpu3.op_class::MemWrite                 594091      7.93%    100.00% # Class of executed instruction
system.cpu3.op_class::IprAccess                     0      0.00%    100.00% # Class of executed instruction
system.cpu3.op_class::InstPrefetch                  0      0.00%    100.00% # Class of executed instruction
system.cpu3.op_class::total                   7495479                       # Class of executed instruction
system.iobus.trans_dist::ReadReq                   82                       # Transaction distribution
system.iobus.trans_dist::ReadResp                  82                       # Transaction distribution
system.iobus.trans_dist::WriteReq                1765                       # Transaction distribution
system.iobus.trans_dist::WriteResp               1765                       # Transaction distribution
system.iobus.trans_dist::MessageReq                12                       # Transaction distribution
system.iobus.trans_dist::MessageResp               12                       # Transaction distribution
system.iobus.pkt_count_system.pc.south_bridge.io_apic.int_master::system.ruby.l1_cntrl0.sequencer.pio-slave-port            2                       # Packet count per connected master and slave (bytes)
system.iobus.pkt_count_system.pc.south_bridge.io_apic.int_master::system.ruby.l1_cntrl1.sequencer.pio-slave-port            4                       # Packet count per connected master and slave (bytes)
system.iobus.pkt_count_system.pc.south_bridge.io_apic.int_master::system.ruby.l1_cntrl2.sequencer.pio-slave-port            2                       # Packet count per connected master and slave (bytes)
system.iobus.pkt_count_system.pc.south_bridge.io_apic.int_master::system.ruby.l1_cntrl3.sequencer.pio-slave-port            2                       # Packet count per connected master and slave (bytes)
system.iobus.pkt_count_system.pc.south_bridge.io_apic.int_master::total           10                       # Packet count per connected master and slave (bytes)
system.iobus.pkt_count_system.ruby.l1_cntrl0.sequencer.mem-master-port::system.pc.south_bridge.io_apic.pio            8                       # Packet count per connected master and slave (bytes)
system.iobus.pkt_count_system.ruby.l1_cntrl0.sequencer.mem-master-port::system.ruby.l1_cntrl0.sequencer.pio-slave-port          864                       # Packet count per connected master and slave (bytes)
system.iobus.pkt_count_system.ruby.l1_cntrl0.sequencer.mem-master-port::system.ruby.l1_cntrl1.sequencer.pio-slave-port            2                       # Packet count per connected master and slave (bytes)
system.iobus.pkt_count_system.ruby.l1_cntrl0.sequencer.mem-master-port::total          874                       # Packet count per connected master and slave (bytes)
system.iobus.pkt_count_system.ruby.l1_cntrl1.sequencer.mem-master-port::system.pc.south_bridge.io_apic.pio           14                       # Packet count per connected master and slave (bytes)
system.iobus.pkt_count_system.ruby.l1_cntrl1.sequencer.mem-master-port::system.pc.com_1.pio          162                       # Packet count per connected master and slave (bytes)
system.iobus.pkt_count_system.ruby.l1_cntrl1.sequencer.mem-master-port::system.ruby.l1_cntrl0.sequencer.pio-slave-port            2                       # Packet count per connected master and slave (bytes)
system.iobus.pkt_count_system.ruby.l1_cntrl1.sequencer.mem-master-port::system.ruby.l1_cntrl1.sequencer.pio-slave-port          872                       # Packet count per connected master and slave (bytes)
system.iobus.pkt_count_system.ruby.l1_cntrl1.sequencer.mem-master-port::system.ruby.l1_cntrl2.sequencer.pio-slave-port            2                       # Packet count per connected master and slave (bytes)
system.iobus.pkt_count_system.ruby.l1_cntrl1.sequencer.mem-master-port::total         1052                       # Packet count per connected master and slave (bytes)
system.iobus.pkt_count_system.ruby.l1_cntrl2.sequencer.mem-master-port::system.pc.south_bridge.io_apic.pio            8                       # Packet count per connected master and slave (bytes)
system.iobus.pkt_count_system.ruby.l1_cntrl2.sequencer.mem-master-port::system.ruby.l1_cntrl2.sequencer.pio-slave-port          864                       # Packet count per connected master and slave (bytes)
system.iobus.pkt_count_system.ruby.l1_cntrl2.sequencer.mem-master-port::system.ruby.l1_cntrl3.sequencer.pio-slave-port            2                       # Packet count per connected master and slave (bytes)
system.iobus.pkt_count_system.ruby.l1_cntrl2.sequencer.mem-master-port::total          874                       # Packet count per connected master and slave (bytes)
system.iobus.pkt_count_system.ruby.l1_cntrl3.sequencer.mem-master-port::system.pc.south_bridge.io_apic.pio            6                       # Packet count per connected master and slave (bytes)
system.iobus.pkt_count_system.ruby.l1_cntrl3.sequencer.mem-master-port::system.pc.com_1.pio           22                       # Packet count per connected master and slave (bytes)
system.iobus.pkt_count_system.ruby.l1_cntrl3.sequencer.mem-master-port::system.ruby.l1_cntrl0.sequencer.pio-slave-port            2                       # Packet count per connected master and slave (bytes)
system.iobus.pkt_count_system.ruby.l1_cntrl3.sequencer.mem-master-port::system.ruby.l1_cntrl1.sequencer.pio-slave-port            2                       # Packet count per connected master and slave (bytes)
system.iobus.pkt_count_system.ruby.l1_cntrl3.sequencer.mem-master-port::system.ruby.l1_cntrl2.sequencer.pio-slave-port            2                       # Packet count per connected master and slave (bytes)
system.iobus.pkt_count_system.ruby.l1_cntrl3.sequencer.mem-master-port::system.ruby.l1_cntrl3.sequencer.pio-slave-port          874                       # Packet count per connected master and slave (bytes)
system.iobus.pkt_count_system.ruby.l1_cntrl3.sequencer.mem-master-port::total          908                       # Packet count per connected master and slave (bytes)
system.iobus.pkt_count::total                    3718                       # Packet count per connected master and slave (bytes)
system.iobus.pkt_size_system.pc.south_bridge.io_apic.int_master::system.ruby.l1_cntrl0.sequencer.pio-slave-port            4                       # Cumulative packet size per connected master and slave (bytes)
system.iobus.pkt_size_system.pc.south_bridge.io_apic.int_master::system.ruby.l1_cntrl1.sequencer.pio-slave-port            8                       # Cumulative packet size per connected master and slave (bytes)
system.iobus.pkt_size_system.pc.south_bridge.io_apic.int_master::system.ruby.l1_cntrl2.sequencer.pio-slave-port            4                       # Cumulative packet size per connected master and slave (bytes)
system.iobus.pkt_size_system.pc.south_bridge.io_apic.int_master::system.ruby.l1_cntrl3.sequencer.pio-slave-port            4                       # Cumulative packet size per connected master and slave (bytes)
system.iobus.pkt_size_system.pc.south_bridge.io_apic.int_master::total           20                       # Cumulative packet size per connected master and slave (bytes)
system.iobus.pkt_size_system.ruby.l1_cntrl0.sequencer.mem-master-port::system.pc.south_bridge.io_apic.pio           16                       # Cumulative packet size per connected master and slave (bytes)
system.iobus.pkt_size_system.ruby.l1_cntrl0.sequencer.mem-master-port::system.ruby.l1_cntrl0.sequencer.pio-slave-port         1728                       # Cumulative packet size per connected master and slave (bytes)
system.iobus.pkt_size_system.ruby.l1_cntrl0.sequencer.mem-master-port::system.ruby.l1_cntrl1.sequencer.pio-slave-port            4                       # Cumulative packet size per connected master and slave (bytes)
system.iobus.pkt_size_system.ruby.l1_cntrl0.sequencer.mem-master-port::total         1748                       # Cumulative packet size per connected master and slave (bytes)
system.iobus.pkt_size_system.ruby.l1_cntrl1.sequencer.mem-master-port::system.pc.south_bridge.io_apic.pio           28                       # Cumulative packet size per connected master and slave (bytes)
system.iobus.pkt_size_system.ruby.l1_cntrl1.sequencer.mem-master-port::system.pc.com_1.pio           81                       # Cumulative packet size per connected master and slave (bytes)
system.iobus.pkt_size_system.ruby.l1_cntrl1.sequencer.mem-master-port::system.ruby.l1_cntrl0.sequencer.pio-slave-port            4                       # Cumulative packet size per connected master and slave (bytes)
system.iobus.pkt_size_system.ruby.l1_cntrl1.sequencer.mem-master-port::system.ruby.l1_cntrl1.sequencer.pio-slave-port         1744                       # Cumulative packet size per connected master and slave (bytes)
system.iobus.pkt_size_system.ruby.l1_cntrl1.sequencer.mem-master-port::system.ruby.l1_cntrl2.sequencer.pio-slave-port            4                       # Cumulative packet size per connected master and slave (bytes)
system.iobus.pkt_size_system.ruby.l1_cntrl1.sequencer.mem-master-port::total         1861                       # Cumulative packet size per connected master and slave (bytes)
system.iobus.pkt_size_system.ruby.l1_cntrl2.sequencer.mem-master-port::system.pc.south_bridge.io_apic.pio           16                       # Cumulative packet size per connected master and slave (bytes)
system.iobus.pkt_size_system.ruby.l1_cntrl2.sequencer.mem-master-port::system.ruby.l1_cntrl2.sequencer.pio-slave-port         1728                       # Cumulative packet size per connected master and slave (bytes)
system.iobus.pkt_size_system.ruby.l1_cntrl2.sequencer.mem-master-port::system.ruby.l1_cntrl3.sequencer.pio-slave-port            4                       # Cumulative packet size per connected master and slave (bytes)
system.iobus.pkt_size_system.ruby.l1_cntrl2.sequencer.mem-master-port::total         1748                       # Cumulative packet size per connected master and slave (bytes)
system.iobus.pkt_size_system.ruby.l1_cntrl3.sequencer.mem-master-port::system.pc.south_bridge.io_apic.pio           12                       # Cumulative packet size per connected master and slave (bytes)
system.iobus.pkt_size_system.ruby.l1_cntrl3.sequencer.mem-master-port::system.pc.com_1.pio           11                       # Cumulative packet size per connected master and slave (bytes)
system.iobus.pkt_size_system.ruby.l1_cntrl3.sequencer.mem-master-port::system.ruby.l1_cntrl0.sequencer.pio-slave-port            4                       # Cumulative packet size per connected master and slave (bytes)
system.iobus.pkt_size_system.ruby.l1_cntrl3.sequencer.mem-master-port::system.ruby.l1_cntrl1.sequencer.pio-slave-port            4                       # Cumulative packet size per connected master and slave (bytes)
system.iobus.pkt_size_system.ruby.l1_cntrl3.sequencer.mem-master-port::system.ruby.l1_cntrl2.sequencer.pio-slave-port            4                       # Cumulative packet size per connected master and slave (bytes)
system.iobus.pkt_size_system.ruby.l1_cntrl3.sequencer.mem-master-port::system.ruby.l1_cntrl3.sequencer.pio-slave-port         1748                       # Cumulative packet size per connected master and slave (bytes)
system.iobus.pkt_size_system.ruby.l1_cntrl3.sequencer.mem-master-port::total         1783                       # Cumulative packet size per connected master and slave (bytes)
system.iobus.pkt_size::total                     7160                       # Cumulative packet size per connected master and slave (bytes)
system.iobus.reqLayer8.occupancy                32496                       # Layer occupancy (ticks)
system.iobus.reqLayer8.utilization                0.0                       # Layer utilization (%)
system.iobus.reqLayer12.occupancy              120000                       # Layer occupancy (ticks)
system.iobus.reqLayer12.utilization               0.0                       # Layer utilization (%)
system.iobus.reqLayer17.occupancy             1083999                       # Layer occupancy (ticks)
system.iobus.reqLayer17.utilization               0.0                       # Layer utilization (%)
system.iobus.reqLayer18.occupancy             1090781                       # Layer occupancy (ticks)
system.iobus.reqLayer18.utilization               0.0                       # Layer utilization (%)
system.iobus.reqLayer19.occupancy             1083500                       # Layer occupancy (ticks)
system.iobus.reqLayer19.utilization               0.0                       # Layer utilization (%)
system.iobus.reqLayer20.occupancy             1089998                       # Layer occupancy (ticks)
system.iobus.reqLayer20.utilization               0.0                       # Layer utilization (%)
system.iobus.respLayer0.occupancy                6500                       # Layer occupancy (ticks)
system.iobus.respLayer0.utilization               0.0                       # Layer utilization (%)
system.iobus.respLayer2.occupancy              656000                       # Layer occupancy (ticks)
system.iobus.respLayer2.utilization               0.0                       # Layer utilization (%)
system.iobus.respLayer4.occupancy              808500                       # Layer occupancy (ticks)
system.iobus.respLayer4.utilization               0.0                       # Layer utilization (%)
system.iobus.respLayer6.occupancy              656000                       # Layer occupancy (ticks)
system.iobus.respLayer6.utilization               0.0                       # Layer utilization (%)
system.iobus.respLayer8.occupancy              684500                       # Layer occupancy (ticks)
system.iobus.respLayer8.utilization               0.0                       # Layer utilization (%)
system.pc.south_bridge.ide.disks.dma_read_full_pages            0                       # Number of full page size DMA reads (not PRD).
system.pc.south_bridge.ide.disks.dma_read_bytes            0                       # Number of bytes transfered via DMA reads (not PRD).
system.pc.south_bridge.ide.disks.dma_read_txs            0                       # Number of DMA read transactions (not PRD).
system.pc.south_bridge.ide.disks.dma_write_full_pages            0                       # Number of full page size DMA writes.
system.pc.south_bridge.ide.disks.dma_write_bytes            0                       # Number of bytes transfered via DMA writes.
system.pc.south_bridge.ide.disks.dma_write_txs            0                       # Number of DMA write transactions.
system.ruby.clk_domain.clock                      500                       # Clock period in ticks
system.ruby.outstanding_req_hist_seqr::bucket_size            1                      
system.ruby.outstanding_req_hist_seqr::max_bucket            9                      
system.ruby.outstanding_req_hist_seqr::samples   1225454090                      
system.ruby.outstanding_req_hist_seqr::mean     1.000000                      
system.ruby.outstanding_req_hist_seqr::gmean     1.000000                      
system.ruby.outstanding_req_hist_seqr::stdev     0.000431                      
system.ruby.outstanding_req_hist_seqr    |           0      0.00%      0.00% |  1225453862    100.00%    100.00% |         228      0.00%    100.00% |           0      0.00%    100.00% |           0      0.00%    100.00% |           0      0.00%    100.00% |           0      0.00%    100.00% |           0      0.00%    100.00% |           0      0.00%    100.00% |           0      0.00%    100.00%
system.ruby.outstanding_req_hist_seqr::total   1225454090                      
system.ruby.latency_hist_seqr::bucket_size          256                      
system.ruby.latency_hist_seqr::max_bucket         2559                      
system.ruby.latency_hist_seqr::samples     1225454090                      
system.ruby.latency_hist_seqr::mean          1.793316                      
system.ruby.latency_hist_seqr::gmean         1.059852                      
system.ruby.latency_hist_seqr::stdev        10.584688                      
system.ruby.latency_hist_seqr            |  1225247396     99.98%     99.98% |      115113      0.01%     99.99% |       85509      0.01%    100.00% |        4402      0.00%    100.00% |        1334      0.00%    100.00% |         280      0.00%    100.00% |          39      0.00%    100.00% |          16      0.00%    100.00% |           1      0.00%    100.00% |           0      0.00%    100.00%
system.ruby.latency_hist_seqr::total       1225454090                      
system.ruby.hit_latency_hist_seqr::bucket_size            2                      
system.ruby.hit_latency_hist_seqr::max_bucket           19                      
system.ruby.hit_latency_hist_seqr::samples   1218971718                      
[...]
system.ruby.L1Cache_Controller.O.Trigger_L2_to_L1D::total         5186                      
system.ruby.L1Cache_Controller.O.Trigger_L2_to_L1I |        1300      5.14%      5.14% |       11079     43.83%     48.97% |          58      0.23%     49.20% |       12840     50.80%    100.00%
system.ruby.L1Cache_Controller.O.Trigger_L2_to_L1I::total        25277                      
system.ruby.L1Cache_Controller.O.Other_GETX |        2937     26.04%     26.04% |         767      6.80%     32.84% |        3201     28.38%     61.22% |        4374     38.78%    100.00%
system.ruby.L1Cache_Controller.O.Other_GETX::total        11279                      
system.ruby.L1Cache_Controller.O.Other_GETS |        3104     16.19%     16.19% |        1061      5.53%     21.73% |        3007     15.69%     37.41% |       11997     62.59%    100.00%
system.ruby.L1Cache_Controller.O.Other_GETS::total        19169                      
system.ruby.L1Cache_Controller.M.Load    |       98622      0.29%      0.29% |    33233681     98.79%     99.08% |      110232      0.33%     99.41% |      198061      0.59%    100.00%
system.ruby.L1Cache_Controller.M.Load::total     33640596                      
system.ruby.L1Cache_Controller.M.Ifetch  |      242996      0.02%      0.02% |  1007199277     99.45%     99.47% |      252205      0.02%     99.50% |     5114507      0.50%    100.00%
system.ruby.L1Cache_Controller.M.Ifetch::total   1012808985                      
system.ruby.L1Cache_Controller.M.Store   |        3056      3.69%      3.69% |       52703     63.59%     67.28% |        5122      6.18%     73.46% |       21992     26.54%    100.00%
system.ruby.L1Cache_Controller.M.Store::total        82873                      
system.ruby.L1Cache_Controller.M.L2_Replacement |          92      0.00%      0.00% |     3202308     99.89%     99.90% |         574      0.02%     99.91% |        2777      0.09%    100.00%
system.ruby.L1Cache_Controller.M.L2_Replacement::total      3205751                      
system.ruby.L1Cache_Controller.M.L1_to_L2 |       11382      0.13%      0.13% |     8957186     99.64%     99.77% |        8313      0.09%     99.86% |       12501      0.14%    100.00%
system.ruby.L1Cache_Controller.M.L1_to_L2::total      8989382                      
system.ruby.L1Cache_Controller.M.Trigger_L2_to_L1D |        3086      0.05%      0.05% |     5749820     99.83%     99.88% |        2437      0.04%     99.92% |        4328      0.08%    100.00%
system.ruby.L1Cache_Controller.M.Trigger_L2_to_L1D::total      5759671                      
system.ruby.L1Cache_Controller.M.Trigger_L2_to_L1I |        3450     42.66%     42.66% |        2357     29.14%     71.80% |         921     11.39%     83.18% |        1360     16.82%    100.00%
system.ruby.L1Cache_Controller.M.Trigger_L2_to_L1I::total         8088                      
system.ruby.L1Cache_Controller.M.Other_GETX |         516     20.72%     20.72% |         249     10.00%     30.72% |        1139     45.74%     76.47% |         586     23.53%    100.00%
system.ruby.L1Cache_Controller.M.Other_GETX::total         2490                      
system.ruby.L1Cache_Controller.M.Other_GETS |        5000     29.20%     29.20% |        1713     10.00%     39.21% |        3681     21.50%     60.71% |        6728     39.29%    100.00%
system.ruby.L1Cache_Controller.M.Other_GETS::total        17122                      
system.ruby.L1Cache_Controller.M.Merged_GETS |          26     35.14%     35.14% |           3      4.05%     39.19% |          43     58.11%     97.30% |           2      2.70%    100.00%
system.ruby.L1Cache_Controller.M.Merged_GETS::total           74                      
system.ruby.L1Cache_Controller.MM.Load   |      511224      2.06%      2.06% |    20964032     84.37%     86.43% |      699606      2.82%     89.25% |     2671633     10.75%    100.00%
system.ruby.L1Cache_Controller.MM.Load::total     24846495                      
system.ruby.L1Cache_Controller.MM.Store  |      555268      0.75%      0.75% |    69878444     94.78%     95.54% |      772193      1.05%     96.58% |     2518473      3.42%    100.00%
system.ruby.L1Cache_Controller.MM.Store::total     73724378                      
system.ruby.L1Cache_Controller.MM.L2_Replacement |         306      0.01%      0.01% |     3183150     99.37%     99.38% |        1904      0.06%     99.44% |       17901      0.56%    100.00%
system.ruby.L1Cache_Controller.MM.L2_Replacement::total      3203261                      
system.ruby.L1Cache_Controller.MM.L1_to_L2 |       16213      0.11%      0.11% |    14098675     98.62%     98.74% |       22214      0.16%     98.89% |      158291      1.11%    100.00%
system.ruby.L1Cache_Controller.MM.L1_to_L2::total     14295393                      
system.ruby.L1Cache_Controller.MM.Trigger_L2_to_L1D |        7357      0.07%      0.07% |    10893805     98.76%     98.82% |        8618      0.08%     98.90% |      121006      1.10%    100.00%
system.ruby.L1Cache_Controller.MM.Trigger_L2_to_L1D::total     11030786                      
system.ruby.L1Cache_Controller.MM.Other_GETX |         954      8.11%      8.11% |        5367     45.64%     53.75% |        1382     11.75%     65.50% |        4057     34.50%    100.00%
system.ruby.L1Cache_Controller.MM.Other_GETX::total        11760                      
system.ruby.L1Cache_Controller.MM.Other_GETS |        5644     18.56%     18.56% |       13505     44.41%     62.96% |        4061     13.35%     76.32% |        7203     23.68%    100.00%
system.ruby.L1Cache_Controller.MM.Other_GETS::total        30413                      
system.ruby.L1Cache_Controller.MM.Merged_GETS |          85     29.51%     29.51% |          85     29.51%     59.03% |          44     15.28%     74.31% |          74     25.69%    100.00%
system.ruby.L1Cache_Controller.MM.Merged_GETS::total          288                      
system.ruby.L1Cache_Controller.SR.Load   |        2883      2.24%      2.24% |      114449     88.92%     91.16% |        6625      5.15%     96.30% |        4758      3.70%    100.00%
system.ruby.L1Cache_Controller.SR.Load::total       128715                      
system.ruby.L1Cache_Controller.SR.Ifetch |       28612     28.59%     28.59% |       20019     20.00%     48.59% |       33764     33.73%     82.32% |       17697     17.68%    100.00%
system.ruby.L1Cache_Controller.SR.Ifetch::total       100092                      
system.ruby.L1Cache_Controller.SR.Store  |          36     12.08%     12.08% |          41     13.76%     25.84% |         129     43.29%     69.13% |          92     30.87%    100.00%
system.ruby.L1Cache_Controller.SR.Store::total          298                      
system.ruby.L1Cache_Controller.OR.Load   |        1603     31.44%     31.44% |        1309     25.68%     57.12% |         403      7.91%     65.03% |        1783     34.97%    100.00%
system.ruby.L1Cache_Controller.OR.Load::total         5098                      
system.ruby.L1Cache_Controller.OR.Ifetch |        1300      5.14%      5.14% |       11079     43.83%     48.97% |          58      0.23%     49.20% |       12840     50.80%    100.00%
system.ruby.L1Cache_Controller.OR.Ifetch::total        25277                      
system.ruby.L1Cache_Controller.OR.Store  |          68     77.27%     77.27% |           7      7.95%     85.23% |           5      5.68%     90.91% |           8      9.09%    100.00%
system.ruby.L1Cache_Controller.OR.Store::total           88                      
system.ruby.L1Cache_Controller.MR.Load   |        2578      0.04%      0.04% |     5749170     99.87%     99.91% |        1763      0.03%     99.95% |        3142      0.05%    100.00%
system.ruby.L1Cache_Controller.MR.Load::total      5756653                      
system.ruby.L1Cache_Controller.MR.Ifetch |        3450     42.66%     42.66% |        2357     29.14%     71.80% |         921     11.39%     83.18% |        1360     16.82%    100.00%
system.ruby.L1Cache_Controller.MR.Ifetch::total         8088                      
system.ruby.L1Cache_Controller.MR.Store  |         508     16.83%     16.83% |         650     21.54%     38.37% |         674     22.33%     60.70% |        1186     39.30%    100.00%
system.ruby.L1Cache_Controller.MR.Store::total         3018                      
system.ruby.L1Cache_Controller.MMR.Load  |        3244      0.07%      0.07% |     4311817     98.00%     98.08% |        5128      0.12%     98.19% |       79509      1.81%    100.00%
system.ruby.L1Cache_Controller.MMR.Load::total      4399698                      
system.ruby.L1Cache_Controller.MMR.Store |        4113      0.06%      0.06% |     6581988     99.26%     99.32% |        3490      0.05%     99.37% |       41497      0.63%    100.00%
system.ruby.L1Cache_Controller.MMR.Store::total      6631088                      
system.ruby.L1Cache_Controller.IM.Ack    |       15320      0.16%      0.16% |     9452834     99.31%     99.47% |       12744      0.13%     99.60% |       38063      0.40%    100.00%
system.ruby.L1Cache_Controller.IM.Ack::total      9518961                      
system.ruby.L1Cache_Controller.IM.Data   |        1638     39.75%     39.75% |         444     10.77%     50.52% |        1142     27.71%     78.23% |         897     21.77%    100.00%
system.ruby.L1Cache_Controller.IM.Data::total         4121                      
system.ruby.L1Cache_Controller.IM.Exclusive_Data |        6072      0.19%      0.19% |     3152001     99.11%     99.30% |        7203      0.23%     99.53% |       15075      0.47%    100.00%
system.ruby.L1Cache_Controller.IM.Exclusive_Data::total      3180351                      
system.ruby.L1Cache_Controller.SM.Ack    |        3733     42.94%     42.94% |        1153     13.26%     56.21% |        1759     20.23%     76.44% |        2048     23.56%    100.00%
system.ruby.L1Cache_Controller.SM.Ack::total         8693                      
system.ruby.L1Cache_Controller.SM.Data   |        2470     33.76%     33.76% |        1208     16.51%     50.27% |        2139     29.23%     79.50% |        1500     20.50%    100.00%
system.ruby.L1Cache_Controller.SM.Data::total         7317                      
system.ruby.L1Cache_Controller.OM.Ack    |         384     29.91%     29.91% |         156     12.15%     42.06% |         207     16.12%     58.18% |         537     41.82%    100.00%
system.ruby.L1Cache_Controller.OM.Ack::total         1284                      
system.ruby.L1Cache_Controller.OM.All_acks_no_sharers |         128     29.91%     29.91% |          52     12.15%     42.06% |          69     16.12%     58.18% |         179     41.82%    100.00%
system.ruby.L1Cache_Controller.OM.All_acks_no_sharers::total          428                      
system.ruby.L1Cache_Controller.ISM.Ack   |        1907     20.29%     20.29% |        1784     18.98%     39.26% |        4230     45.00%     84.26% |        1480     15.74%    100.00%
system.ruby.L1Cache_Controller.ISM.Ack::total         9401                      
system.ruby.L1Cache_Controller.ISM.All_acks_no_sharers |        4108     35.92%     35.92% |        1652     14.44%     50.36% |        3281     28.69%     79.04% |        2397     20.96%    100.00%
system.ruby.L1Cache_Controller.ISM.All_acks_no_sharers::total        11438                      
system.ruby.L1Cache_Controller.M_W.Load  |          24     16.33%     16.33% |          18     12.24%     28.57% |          50     34.01%     62.59% |          55     37.41%    100.00%
system.ruby.L1Cache_Controller.M_W.Load::total          147                      
system.ruby.L1Cache_Controller.M_W.Store |          16     14.55%     14.55% |           3      2.73%     17.27% |           4      3.64%     20.91% |          87     79.09%    100.00%
system.ruby.L1Cache_Controller.M_W.Store::total          110                      
system.ruby.L1Cache_Controller.M_W.Ack   |        4121     13.92%     13.92% |        1921      6.49%     20.40% |        4928     16.64%     37.05% |       18642     62.95%    100.00%
system.ruby.L1Cache_Controller.M_W.Ack::total        29612                      
system.ruby.L1Cache_Controller.M_W.All_acks_no_sharers |       10516      0.32%      0.32% |     3259166     98.27%     98.59% |       13262      0.40%     98.99% |       33630      1.01%    100.00%
system.ruby.L1Cache_Controller.M_W.All_acks_no_sharers::total      3316574                      
system.ruby.L1Cache_Controller.MM_W.Store |         936     16.04%     16.04% |         465      7.97%     24.01% |        1634     28.01%     52.02% |        2799     47.98%    100.00%
system.ruby.L1Cache_Controller.MM_W.Store::total         5834                      
system.ruby.L1Cache_Controller.MM_W.Ack  |        2414     18.72%     18.72% |        1610     12.49%     31.21% |        4501     34.91%     66.12% |        4368     33.88%    100.00%
system.ruby.L1Cache_Controller.MM_W.Ack::total        12893                      
system.ruby.L1Cache_Controller.MM_W.All_acks_no_sharers |        6088      0.19%      0.19% |     3152004     99.11%     99.30% |        7207      0.23%     99.52% |       15162      0.48%    100.00%
system.ruby.L1Cache_Controller.MM_W.All_acks_no_sharers::total      3180461                      
system.ruby.L1Cache_Controller.IS.Other_GETS |           0      0.00%      0.00% |           0      0.00%      0.00% |           0      0.00%      0.00% |           1    100.00%    100.00%
system.ruby.L1Cache_Controller.IS.Other_GETS::total            1                      
system.ruby.L1Cache_Controller.IS.Ack    |       31658      0.32%      0.32% |     9789094     98.48%     98.79% |       42474      0.43%     99.22% |       77338      0.78%    100.00%
system.ruby.L1Cache_Controller.IS.Ack::total      9940564                      
system.ruby.L1Cache_Controller.IS.Shared_Ack |       10775     24.57%     24.57% |       18557     42.31%     66.88% |        8876     20.24%     87.11% |        5652     12.89%    100.00%
system.ruby.L1Cache_Controller.IS.Shared_Ack::total        43860                      
system.ruby.L1Cache_Controller.IS.Data   |        3904     22.20%     22.20% |        6058     34.46%     56.66% |        4124     23.46%     80.12% |        3496     19.88%    100.00%
system.ruby.L1Cache_Controller.IS.Data::total        17582                      
system.ruby.L1Cache_Controller.IS.Shared_Data |        7145     19.49%     19.49% |       13009     35.49%     54.98% |        9199     25.10%     80.08% |        7301     19.92%    100.00%
system.ruby.L1Cache_Controller.IS.Shared_Data::total        36654                      
system.ruby.L1Cache_Controller.IS.Exclusive_Data |       10532      0.32%      0.32% |     3259169     98.27%     98.58% |       13266      0.40%     98.98% |       33717      1.02%    100.00%
system.ruby.L1Cache_Controller.IS.Exclusive_Data::total      3316684                      
system.ruby.L1Cache_Controller.SS.Load   |          14      2.85%      2.85% |         304     61.79%     64.63% |         128     26.02%     90.65% |          46      9.35%    100.00%
system.ruby.L1Cache_Controller.SS.Load::total          492                      
system.ruby.L1Cache_Controller.SS.Ifetch |         393      8.33%      8.33% |        1620     34.34%     42.67% |        1346     28.53%     71.20% |        1359     28.80%    100.00%
system.ruby.L1Cache_Controller.SS.Ifetch::total         4718                      
system.ruby.L1Cache_Controller.SS.Store  |           6     24.00%     24.00% |           0      0.00%     24.00% |          18     72.00%     96.00% |           1      4.00%    100.00%
system.ruby.L1Cache_Controller.SS.Store::total           25                      
system.ruby.L1Cache_Controller.SS.Ack    |        4142     19.18%     19.18% |        5469     25.32%     44.50% |        6195     28.69%     73.19% |        5790     26.81%    100.00%
system.ruby.L1Cache_Controller.SS.Ack::total        21596                      
system.ruby.L1Cache_Controller.SS.Shared_Ack |        1208     13.09%     13.09% |        4062     44.02%     57.11% |        2208     23.93%     81.04% |        1749     18.96%    100.00%
system.ruby.L1Cache_Controller.SS.Shared_Ack::total         9227                      
system.ruby.L1Cache_Controller.SS.All_acks |       10906     20.94%     20.94% |       18656     35.82%     56.77% |       13158     25.27%     82.03% |        9356     17.97%    100.00%
system.ruby.L1Cache_Controller.SS.All_acks::total        52076                      
system.ruby.L1Cache_Controller.SS.All_acks_no_sharers |         143      6.62%      6.62% |         411     19.03%     25.65% |         165      7.64%     33.29% |        1441     66.71%    100.00%
system.ruby.L1Cache_Controller.SS.All_acks_no_sharers::total         2160                      
system.ruby.L1Cache_Controller.OI.Load   |           2     20.00%     20.00% |           0      0.00%     20.00% |           0      0.00%     20.00% |           8     80.00%    100.00%
system.ruby.L1Cache_Controller.OI.Load::total           10                      
system.ruby.L1Cache_Controller.OI.Ifetch |           0      0.00%      0.00% |           2     20.00%     20.00% |           0      0.00%     20.00% |           8     80.00%    100.00%
system.ruby.L1Cache_Controller.OI.Ifetch::total           10                      
system.ruby.L1Cache_Controller.OI.Writeback_Ack |          79      1.33%      1.33% |        3865     65.02%     66.35% |         132      2.22%     68.57% |        1868     31.43%    100.00%
system.ruby.L1Cache_Controller.OI.Writeback_Ack::total         5944                      
system.ruby.L1Cache_Controller.MI.Load   |           0      0.00%      0.00% |       18326     99.25%     99.25% |           9      0.05%     99.30% |         129      0.70%    100.00%
system.ruby.L1Cache_Controller.MI.Load::total        18464                      
system.ruby.L1Cache_Controller.MI.Ifetch |           0      0.00%      0.00% |           3    100.00%    100.00% |           0      0.00%    100.00% |           0      0.00%    100.00%
system.ruby.L1Cache_Controller.MI.Ifetch::total            3                      
system.ruby.L1Cache_Controller.MI.Store  |           1      0.00%      0.00% |       24786     99.74%     99.75% |          12      0.05%     99.79% |          51      0.21%    100.00%
system.ruby.L1Cache_Controller.MI.Store::total        24850                      
system.ruby.L1Cache_Controller.MI.Writeback_Ack |         398      0.01%      0.01% |     6385458     99.63%     99.64% |        2478      0.04%     99.68% |       20678      0.32%    100.00%
system.ruby.L1Cache_Controller.MI.Writeback_Ack::total      6409012                      
system.ruby.L1Cache_Controller.ST.Complete_L2_to_L1 |       31531     13.76%     13.76% |      134509     58.71%     72.47% |       40518     17.69%     90.16% |       22547      9.84%    100.00%
system.ruby.L1Cache_Controller.ST.Complete_L2_to_L1::total       229105                      
system.ruby.L1Cache_Controller.OT.Complete_L2_to_L1 |        2971      9.75%      9.75% |       12395     40.69%     50.44% |         466      1.53%     51.97% |       14631     48.03%    100.00%
system.ruby.L1Cache_Controller.OT.Complete_L2_to_L1::total        30463                      
system.ruby.L1Cache_Controller.MT.Complete_L2_to_L1 |        6536      0.11%      0.11% |     5752177     99.73%     99.84% |        3358      0.06%     99.90% |        5688      0.10%    100.00%
system.ruby.L1Cache_Controller.MT.Complete_L2_to_L1::total      5767759                      
system.ruby.L1Cache_Controller.MMT.Complete_L2_to_L1 |        7357      0.07%      0.07% |    10893805     98.76%     98.82% |        8618      0.08%     98.90% |      121006      1.10%    100.00%
system.ruby.L1Cache_Controller.MMT.Complete_L2_to_L1::total     11030786                      

---------- End Simulation Statistics   ----------
