
---------- Begin Simulation Statistics ----------
sim_seconds                                  0.817152                       # Number of seconds simulated
sim_ticks                                817152305500                       # Number of ticks simulated
final_tick                               54329242636501                       # Number of ticks from beginning of simulation (restored from checkpoints and never reset)
sim_freq                                 1000000000000                       # Frequency of simulated ticks
host_inst_rate                                 106662                       # Simulator instruction rate (inst/s)
host_op_rate                                   176638                       # Simulator op (including micro ops) rate (op/s)
host_tick_rate                              311492184                       # Simulator tick rate (ticks/s)
host_mem_usage                                1872444                       # Number of bytes of host memory used
host_seconds                                  2623.35                       # Real time elapsed on the host
sim_insts                                   279811582                       # Number of instructions simulated
sim_ops                                     463383692                       # Number of ops (including micro ops) simulated
system.voltage_domain.voltage                       1                       # Voltage in Volts
system.clk_domain.clock                          1000                       # Clock period in ticks
system.mem_ctrls0.bytes_read::ruby.dir_cntrl0    121820160                       # Number of bytes read from this memory
system.mem_ctrls0.bytes_read::total         121820160                       # Number of bytes read from this memory
system.mem_ctrls0.bytes_written::ruby.dir_cntrl0     65181632                       # Number of bytes written to this memory
system.mem_ctrls0.bytes_written::total       65181632                       # Number of bytes written to this memory
system.mem_ctrls0.num_reads::ruby.dir_cntrl0      1903440                       # Number of read requests responded to by this memory
system.mem_ctrls0.num_reads::total            1903440                       # Number of read requests responded to by this memory
system.mem_ctrls0.num_writes::ruby.dir_cntrl0      1018463                       # Number of write requests responded to by this memory
system.mem_ctrls0.num_writes::total           1018463                       # Number of write requests responded to by this memory
system.mem_ctrls0.bw_read::ruby.dir_cntrl0    149078892                       # Total read bandwidth from this memory (bytes/s)
system.mem_ctrls0.bw_read::total            149078892                       # Total read bandwidth from this memory (bytes/s)
system.mem_ctrls0.bw_write::ruby.dir_cntrl0     79766809                       # Write bandwidth from this memory (bytes/s)
system.mem_ctrls0.bw_write::total            79766809                       # Write bandwidth from this memory (bytes/s)
system.mem_ctrls0.bw_total::ruby.dir_cntrl0    228845701                       # Total bandwidth to/from this memory (bytes/s)
system.mem_ctrls0.bw_total::total           228845701                       # Total bandwidth to/from this memory (bytes/s)
system.mem_ctrls0.readReqs                    1903440                       # Number of read requests accepted
system.mem_ctrls0.writeReqs                   1018463                       # Number of write requests accepted
system.mem_ctrls0.readBursts                  1903440                       # Number of DRAM read bursts, including those serviced by the write queue
system.mem_ctrls0.writeBursts                 1018463                       # Number of DRAM write bursts, including those merged in the write queue
system.mem_ctrls0.bytesReadDRAM             121767488                       # Total number of bytes read from DRAM
system.mem_ctrls0.bytesReadWrQ                  52672                       # Total number of bytes read from write queue
system.mem_ctrls0.bytesWritten               65181248                       # Total number of bytes written to DRAM
system.mem_ctrls0.bytesReadSys              121820160                       # Total read bytes from the system interface side
system.mem_ctrls0.bytesWrittenSys            65181632                       # Total written bytes from the system interface side
system.mem_ctrls0.servicedByWrQ                   823                       # Number of DRAM read bursts serviced by the write queue
system.mem_ctrls0.mergedWrBursts                    7                       # Number of DRAM write bursts merged with an existing one
system.mem_ctrls0.neitherReadNorWriteReqs            0                       # Number of requests that are neither read nor write
system.mem_ctrls0.perBankRdBursts::0           118466                       # Per bank write bursts
system.mem_ctrls0.perBankRdBursts::1           116768                       # Per bank write bursts
system.mem_ctrls0.perBankRdBursts::2           122186                       # Per bank write bursts
system.mem_ctrls0.perBankRdBursts::3           121289                       # Per bank write bursts
system.mem_ctrls0.perBankRdBursts::4           122496                       # Per bank write bursts
system.mem_ctrls0.perBankRdBursts::5           112857                       # Per bank write bursts
system.mem_ctrls0.perBankRdBursts::6           115054                       # Per bank write bursts
system.mem_ctrls0.perBankRdBursts::7           117023                       # Per bank write bursts
system.mem_ctrls0.perBankRdBursts::8           125046                       # Per bank write bursts
system.mem_ctrls0.perBankRdBursts::9           127964                       # Per bank write bursts
system.mem_ctrls0.perBankRdBursts::10          121810                       # Per bank write bursts
system.mem_ctrls0.perBankRdBursts::11          118692                       # Per bank write bursts
system.mem_ctrls0.perBankRdBursts::12          116142                       # Per bank write bursts
system.mem_ctrls0.perBankRdBursts::13          118024                       # Per bank write bursts
system.mem_ctrls0.perBankRdBursts::14          117194                       # Per bank write bursts
system.mem_ctrls0.perBankRdBursts::15          111606                       # Per bank write bursts
system.mem_ctrls0.perBankWrBursts::0            65181                       # Per bank write bursts
system.mem_ctrls0.perBankWrBursts::1            62159                       # Per bank write bursts
system.mem_ctrls0.perBankWrBursts::2            64601                       # Per bank write bursts
system.mem_ctrls0.perBankWrBursts::3            65682                       # Per bank write bursts
system.mem_ctrls0.perBankWrBursts::4            63559                       # Per bank write bursts
system.mem_ctrls0.perBankWrBursts::5            61244                       # Per bank write bursts
system.mem_ctrls0.perBankWrBursts::6            61624                       # Per bank write bursts
system.mem_ctrls0.perBankWrBursts::7            61591                       # Per bank write bursts
system.mem_ctrls0.perBankWrBursts::8            66838                       # Per bank write bursts
system.mem_ctrls0.perBankWrBursts::9            65406                       # Per bank write bursts
system.mem_ctrls0.perBankWrBursts::10           64176                       # Per bank write bursts
system.mem_ctrls0.perBankWrBursts::11           63892                       # Per bank write bursts
system.mem_ctrls0.perBankWrBursts::12           64316                       # Per bank write bursts
system.mem_ctrls0.perBankWrBursts::13           63759                       # Per bank write bursts
system.mem_ctrls0.perBankWrBursts::14           62666                       # Per bank write bursts
system.mem_ctrls0.perBankWrBursts::15           61763                       # Per bank write bursts
system.mem_ctrls0.numRdRetry                        0                       # Number of times read queue was full causing retry
system.mem_ctrls0.numWrRetry                        0                       # Number of times write queue was full causing retry
system.mem_ctrls0.totGap                 817151962000                       # Total gap between requests
system.mem_ctrls0.readPktSize::0                    0                       # Read request sizes (log2)
system.mem_ctrls0.readPktSize::1                    0                       # Read request sizes (log2)
system.mem_ctrls0.readPktSize::2                    0                       # Read request sizes (log2)
system.mem_ctrls0.readPktSize::3                    0                       # Read request sizes (log2)
system.mem_ctrls0.readPktSize::4                    0                       # Read request sizes (log2)
system.mem_ctrls0.readPktSize::5                    0                       # Read request sizes (log2)
system.mem_ctrls0.readPktSize::6              1903440                       # Read request sizes (log2)
system.mem_ctrls0.writePktSize::0                   0                       # Write request sizes (log2)
system.mem_ctrls0.writePktSize::1                   0                       # Write request sizes (log2)
system.mem_ctrls0.writePktSize::2                   0                       # Write request sizes (log2)
system.mem_ctrls0.writePktSize::3                   0                       # Write request sizes (log2)
system.mem_ctrls0.writePktSize::4                   0                       # Write request sizes (log2)
system.mem_ctrls0.writePktSize::5                   0                       # Write request sizes (log2)
system.mem_ctrls0.writePktSize::6             1018463                       # Write request sizes (log2)
system.mem_ctrls0.rdQLenPdf::0                1892769                       # What read queue length does an incoming req see
system.mem_ctrls0.rdQLenPdf::1                   9823                       # What read queue length does an incoming req see
system.mem_ctrls0.rdQLenPdf::2                     24                       # What read queue length does an incoming req see
system.mem_ctrls0.rdQLenPdf::3                      1                       # What read queue length does an incoming req see
system.mem_ctrls0.rdQLenPdf::4                      0                       # What read queue length does an incoming req see
system.mem_ctrls0.rdQLenPdf::5                      0                       # What read queue length does an incoming req see
system.mem_ctrls0.rdQLenPdf::6                      0                       # What read queue length does an incoming req see
system.mem_ctrls0.rdQLenPdf::7                      0                       # What read queue length does an incoming req see
system.mem_ctrls0.rdQLenPdf::8                      0                       # What read queue length does an incoming req see
system.mem_ctrls0.rdQLenPdf::9                      0                       # What read queue length does an incoming req see
system.mem_ctrls0.rdQLenPdf::10                     0                       # What read queue length does an incoming req see
system.mem_ctrls0.rdQLenPdf::11                     0                       # What read queue length does an incoming req see
system.mem_ctrls0.rdQLenPdf::12                     0                       # What read queue length does an incoming req see
system.mem_ctrls0.rdQLenPdf::13                     0                       # What read queue length does an incoming req see
system.mem_ctrls0.rdQLenPdf::14                     0                       # What read queue length does an incoming req see
system.mem_ctrls0.rdQLenPdf::15                     0                       # What read queue length does an incoming req see
system.mem_ctrls0.rdQLenPdf::16                     0                       # What read queue length does an incoming req see
system.mem_ctrls0.rdQLenPdf::17                     0                       # What read queue length does an incoming req see
system.mem_ctrls0.rdQLenPdf::18                     0                       # What read queue length does an incoming req see
system.mem_ctrls0.rdQLenPdf::19                     0                       # What read queue length does an incoming req see
system.mem_ctrls0.rdQLenPdf::20                     0                       # What read queue length does an incoming req see
system.mem_ctrls0.rdQLenPdf::21                     0                       # What read queue length does an incoming req see
system.mem_ctrls0.rdQLenPdf::22                     0                       # What read queue length does an incoming req see
system.mem_ctrls0.rdQLenPdf::23                     0                       # What read queue length does an incoming req see
system.mem_ctrls0.rdQLenPdf::24                     0                       # What read queue length does an incoming req see
system.mem_ctrls0.rdQLenPdf::25                     0                       # What read queue length does an incoming req see
system.mem_ctrls0.rdQLenPdf::26                     0                       # What read queue length does an incoming req see
system.mem_ctrls0.rdQLenPdf::27                     0                       # What read queue length does an incoming req see
system.mem_ctrls0.rdQLenPdf::28                     0                       # What read queue length does an incoming req see
system.mem_ctrls0.rdQLenPdf::29                     0                       # What read queue length does an incoming req see
system.mem_ctrls0.rdQLenPdf::30                     0                       # What read queue length does an incoming req see
system.mem_ctrls0.rdQLenPdf::31                     0                       # What read queue length does an incoming req see
system.mem_ctrls0.wrQLenPdf::0                      0                       # What write queue length does an incoming req see
system.mem_ctrls0.wrQLenPdf::1                      0                       # What write queue length does an incoming req see
system.mem_ctrls0.wrQLenPdf::2                      0                       # What write queue length does an incoming req see
system.mem_ctrls0.wrQLenPdf::3                      0                       # What write queue length does an incoming req see
system.mem_ctrls0.wrQLenPdf::4                      0                       # What write queue length does an incoming req see
system.mem_ctrls0.wrQLenPdf::5                      0                       # What write queue length does an incoming req see
system.mem_ctrls0.wrQLenPdf::6                      0                       # What write queue length does an incoming req see
system.mem_ctrls0.wrQLenPdf::7                      0                       # What write queue length does an incoming req see
system.mem_ctrls0.wrQLenPdf::8                      0                       # What write queue length does an incoming req see
system.mem_ctrls0.wrQLenPdf::9                      0                       # What write queue length does an incoming req see
system.mem_ctrls0.wrQLenPdf::10                     0                       # What write queue length does an incoming req see
system.mem_ctrls0.wrQLenPdf::11                     0                       # What write queue length does an incoming req see
system.mem_ctrls0.wrQLenPdf::12                     0                       # What write queue length does an incoming req see
system.mem_ctrls0.wrQLenPdf::13                     0                       # What write queue length does an incoming req see
system.mem_ctrls0.wrQLenPdf::14                     0                       # What write queue length does an incoming req see
system.mem_ctrls0.wrQLenPdf::15                  1767                       # What write queue length does an incoming req see
system.mem_ctrls0.wrQLenPdf::16                  1911                       # What write queue length does an incoming req see
system.mem_ctrls0.wrQLenPdf::17                 63180                       # What write queue length does an incoming req see
system.mem_ctrls0.wrQLenPdf::18                 63477                       # What write queue length does an incoming req see
system.mem_ctrls0.wrQLenPdf::19                 63472                       # What write queue length does an incoming req see
system.mem_ctrls0.wrQLenPdf::20                 63441                       # What write queue length does an incoming req see
system.mem_ctrls0.wrQLenPdf::21                 63452                       # What write queue length does an incoming req see
system.mem_ctrls0.wrQLenPdf::22                 63450                       # What write queue length does an incoming req see
system.mem_ctrls0.wrQLenPdf::23                 63442                       # What write queue length does an incoming req see
system.mem_ctrls0.wrQLenPdf::24                 63441                       # What write queue length does an incoming req see
system.mem_ctrls0.wrQLenPdf::25                 63430                       # What write queue length does an incoming req see
system.mem_ctrls0.wrQLenPdf::26                 63431                       # What write queue length does an incoming req see
system.mem_ctrls0.wrQLenPdf::27                 63427                       # What write queue length does an incoming req see
system.mem_ctrls0.wrQLenPdf::28                 63433                       # What write queue length does an incoming req see
system.mem_ctrls0.wrQLenPdf::29                 63436                       # What write queue length does an incoming req see
system.mem_ctrls0.wrQLenPdf::30                 63424                       # What write queue length does an incoming req see
system.mem_ctrls0.wrQLenPdf::31                 63415                       # What write queue length does an incoming req see
system.mem_ctrls0.wrQLenPdf::32                 63416                       # What write queue length does an incoming req see
system.mem_ctrls0.wrQLenPdf::33                     6                       # What write queue length does an incoming req see
system.mem_ctrls0.wrQLenPdf::34                     3                       # What write queue length does an incoming req see
system.mem_ctrls0.wrQLenPdf::35                     2                       # What write queue length does an incoming req see
system.mem_ctrls0.wrQLenPdf::36                     0                       # What write queue length does an incoming req see
system.mem_ctrls0.wrQLenPdf::37                     0                       # What write queue length does an incoming req see
system.mem_ctrls0.wrQLenPdf::38                     0                       # What write queue length does an incoming req see
system.mem_ctrls0.wrQLenPdf::39                     0                       # What write queue length does an incoming req see
system.mem_ctrls0.wrQLenPdf::40                     0                       # What write queue length does an incoming req see
system.mem_ctrls0.wrQLenPdf::41                     0                       # What write queue length does an incoming req see
system.mem_ctrls0.wrQLenPdf::42                     0                       # What write queue length does an incoming req see
system.mem_ctrls0.wrQLenPdf::43                     0                       # What write queue length does an incoming req see
system.mem_ctrls0.wrQLenPdf::44                     0                       # What write queue length does an incoming req see
system.mem_ctrls0.wrQLenPdf::45                     0                       # What write queue length does an incoming req see
system.mem_ctrls0.wrQLenPdf::46                     0                       # What write queue length does an incoming req see
system.mem_ctrls0.wrQLenPdf::47                     0                       # What write queue length does an incoming req see
system.mem_ctrls0.wrQLenPdf::48                     0                       # What write queue length does an incoming req see
system.mem_ctrls0.wrQLenPdf::49                     0                       # What write queue length does an incoming req see
system.mem_ctrls0.wrQLenPdf::50                     0                       # What write queue length does an incoming req see
system.mem_ctrls0.wrQLenPdf::51                     0                       # What write queue length does an incoming req see
system.mem_ctrls0.wrQLenPdf::52                     0                       # What write queue length does an incoming req see
system.mem_ctrls0.wrQLenPdf::53                     0                       # What write queue length does an incoming req see
system.mem_ctrls0.wrQLenPdf::54                     0                       # What write queue length does an incoming req see
system.mem_ctrls0.wrQLenPdf::55                     0                       # What write queue length does an incoming req see
system.mem_ctrls0.wrQLenPdf::56                     0                       # What write queue length does an incoming req see
system.mem_ctrls0.wrQLenPdf::57                     0                       # What write queue length does an incoming req see
system.mem_ctrls0.wrQLenPdf::58                     0                       # What write queue length does an incoming req see
system.mem_ctrls0.wrQLenPdf::59                     0                       # What write queue length does an incoming req see
system.mem_ctrls0.wrQLenPdf::60                     0                       # What write queue length does an incoming req see
system.mem_ctrls0.wrQLenPdf::61                     0                       # What write queue length does an incoming req see
system.mem_ctrls0.wrQLenPdf::62                     0                       # What write queue length does an incoming req see
system.mem_ctrls0.wrQLenPdf::63                     0                       # What write queue length does an incoming req see
system.mem_ctrls0.bytesPerActivate::samples      2742252                       # Bytes accessed per row activation
system.mem_ctrls0.bytesPerActivate::mean    68.173434                       # Bytes accessed per row activation
system.mem_ctrls0.bytesPerActivate::gmean    66.386056                       # Bytes accessed per row activation
system.mem_ctrls0.bytesPerActivate::stdev    31.028089                       # Bytes accessed per row activation
system.mem_ctrls0.bytesPerActivate::0-127      2616262     95.41%     95.41% # Bytes accessed per row activation
system.mem_ctrls0.bytesPerActivate::128-255       119444      4.36%     99.76% # Bytes accessed per row activation
system.mem_ctrls0.bytesPerActivate::256-383         3266      0.12%     99.88% # Bytes accessed per row activation
system.mem_ctrls0.bytesPerActivate::384-511          778      0.03%     99.91% # Bytes accessed per row activation
system.mem_ctrls0.bytesPerActivate::512-639          367      0.01%     99.92% # Bytes accessed per row activation
system.mem_ctrls0.bytesPerActivate::640-767          230      0.01%     99.93% # Bytes accessed per row activation
system.mem_ctrls0.bytesPerActivate::768-895          200      0.01%     99.94% # Bytes accessed per row activation
system.mem_ctrls0.bytesPerActivate::896-1023          199      0.01%     99.95% # Bytes accessed per row activation
system.mem_ctrls0.bytesPerActivate::1024-1151         1506      0.05%    100.00% # Bytes accessed per row activation
system.mem_ctrls0.bytesPerActivate::total      2742252                       # Bytes accessed per row activation
system.mem_ctrls0.rdPerTurnAround::samples        63415                       # Reads before turning the bus around for writes
system.mem_ctrls0.rdPerTurnAround::mean     30.002807                       # Reads before turning the bus around for writes
system.mem_ctrls0.rdPerTurnAround::stdev     8.716817                       # Reads before turning the bus around for writes
system.mem_ctrls0.rdPerTurnAround::0-15            68      0.11%      0.11% # Reads before turning the bus around for writes
system.mem_ctrls0.rdPerTurnAround::16-31        42729     67.38%     67.49% # Reads before turning the bus around for writes
system.mem_ctrls0.rdPerTurnAround::32-47        20185     31.83%     99.32% # Reads before turning the bus around for writes
system.mem_ctrls0.rdPerTurnAround::48-63          154      0.24%     99.56% # Reads before turning the bus around for writes
system.mem_ctrls0.rdPerTurnAround::64-79           22      0.03%     99.59% # Reads before turning the bus around for writes
system.mem_ctrls0.rdPerTurnAround::80-95           19      0.03%     99.62% # Reads before turning the bus around for writes
system.mem_ctrls0.rdPerTurnAround::96-111           39      0.06%     99.69% # Reads before turning the bus around for writes
system.mem_ctrls0.rdPerTurnAround::112-127           64      0.10%     99.79% # Reads before turning the bus around for writes
system.mem_ctrls0.rdPerTurnAround::128-143           52      0.08%     99.87% # Reads before turning the bus around for writes
system.mem_ctrls0.rdPerTurnAround::144-159           35      0.06%     99.92% # Reads before turning the bus around for writes
system.mem_ctrls0.rdPerTurnAround::160-175           27      0.04%     99.97% # Reads before turning the bus around for writes
system.mem_ctrls0.rdPerTurnAround::176-191            8      0.01%     99.98% # Reads before turning the bus around for writes
system.mem_ctrls0.rdPerTurnAround::192-207            4      0.01%     99.99% # Reads before turning the bus around for writes
system.mem_ctrls0.rdPerTurnAround::208-223            3      0.00%     99.99% # Reads before turning the bus around for writes
system.mem_ctrls0.rdPerTurnAround::224-239            3      0.00%    100.00% # Reads before turning the bus around for writes
system.mem_ctrls0.rdPerTurnAround::240-255            1      0.00%    100.00% # Reads before turning the bus around for writes
system.mem_ctrls0.rdPerTurnAround::272-287            2      0.00%    100.00% # Reads before turning the bus around for writes
system.mem_ctrls0.rdPerTurnAround::total        63415                       # Reads before turning the bus around for writes
system.mem_ctrls0.wrPerTurnAround::samples        63415                       # Writes before turning the bus around for reads
system.mem_ctrls0.wrPerTurnAround::mean     16.060191                       # Writes before turning the bus around for reads
system.mem_ctrls0.wrPerTurnAround::gmean    16.056716                       # Writes before turning the bus around for reads
system.mem_ctrls0.wrPerTurnAround::stdev     0.347854                       # Writes before turning the bus around for reads
system.mem_ctrls0.wrPerTurnAround::16           61507     96.99%     96.99% # Writes before turning the bus around for reads
system.mem_ctrls0.wrPerTurnAround::17              90      0.14%     97.13% # Writes before turning the bus around for reads
system.mem_ctrls0.wrPerTurnAround::18            1757      2.77%     99.90% # Writes before turning the bus around for reads
system.mem_ctrls0.wrPerTurnAround::19              40      0.06%     99.97% # Writes before turning the bus around for reads
system.mem_ctrls0.wrPerTurnAround::20              15      0.02%     99.99% # Writes before turning the bus around for reads
system.mem_ctrls0.wrPerTurnAround::21               4      0.01%    100.00% # Writes before turning the bus around for reads
system.mem_ctrls0.wrPerTurnAround::22               1      0.00%    100.00% # Writes before turning the bus around for reads
system.mem_ctrls0.wrPerTurnAround::23               1      0.00%    100.00% # Writes before turning the bus around for reads
system.mem_ctrls0.wrPerTurnAround::total        63415                       # Writes before turning the bus around for reads
system.mem_ctrls0.totQLat                 48631283415                       # Total ticks spent queuing
system.mem_ctrls0.totMemAccLat            84305352165                       # Total ticks spent from burst creation until serviced by the DRAM
system.mem_ctrls0.totBusLat                9513085000                       # Total ticks spent in databus transfers
system.mem_ctrls0.avgQLat                    25560.21                       # Average queueing delay per DRAM burst
system.mem_ctrls0.avgBusLat                   5000.00                       # Average bus latency per DRAM burst
system.mem_ctrls0.avgMemAccLat               44310.21                       # Average memory access latency per DRAM burst
system.mem_ctrls0.avgRdBW                      149.01                       # Average DRAM read bandwidth in MiByte/s
system.mem_ctrls0.avgWrBW                       79.77                       # Average achieved write bandwidth in MiByte/s
system.mem_ctrls0.avgRdBWSys                   149.08                       # Average system read bandwidth in MiByte/s
system.mem_ctrls0.avgWrBWSys                    79.77                       # Average system write bandwidth in MiByte/s
system.mem_ctrls0.peakBW                     12800.00                       # Theoretical peak bandwidth in MiByte/s
system.mem_ctrls0.busUtil                        1.79                       # Data bus utilization in percentage
system.mem_ctrls0.busUtilRead                    1.16                       # Data bus utilization in percentage for reads
system.mem_ctrls0.busUtilWrite                   0.62                       # Data bus utilization in percentage for writes
system.mem_ctrls0.avgRdQLen                      1.00                       # Average read queue length when enqueuing
system.mem_ctrls0.avgWrQLen                     25.53                       # Average write queue length when enqueuing
system.mem_ctrls0.readRowHits                  109107                       # Number of row buffer hits during reads
system.mem_ctrls0.writeRowHits                  69714                       # Number of row buffer hits during writes
system.mem_ctrls0.readRowHitRate                 5.73                       # Row buffer hit rate for reads
system.mem_ctrls0.writeRowHitRate                6.85                       # Row buffer hit rate for writes
system.mem_ctrls0.avgGap                    279664.30                       # Average gap between requests
system.mem_ctrls0.pageHitRate                    6.12                       # Row buffer hit rate, read and write combined
system.mem_ctrls0_0.actEnergy             10298247120                       # Energy for activate commands per rank (pJ)
system.mem_ctrls0_0.preEnergy              5619083250                       # Energy for precharge commands per rank (pJ)
system.mem_ctrls0_0.readEnergy             7430514000                       # Energy for read commands per rank (pJ)
system.mem_ctrls0_0.writeEnergy            3277545120                       # Energy for write commands per rank (pJ)
system.mem_ctrls0_0.refreshEnergy         53869726560                       # Energy for refresh commands per rank (pJ)
system.mem_ctrls0_0.actBackEnergy        499959292050                       # Energy for active background per rank (pJ)
system.mem_ctrls0_0.preBackEnergy         56299164000                       # Energy for precharge background per rank (pJ)
system.mem_ctrls0_0.totalEnergy          636753572100                       # Total energy per rank (pJ)
system.mem_ctrls0_0.averagePower           772.040950                       # Core power per rank (mW)
system.mem_ctrls0_0.memoryStateTime::IDLE  86588303250                       # Time in different power states
system.mem_ctrls0_0.memoryStateTime::REF  27286480000                       # Time in different power states
system.mem_ctrls0_0.memoryStateTime::PRE_PDN            0                       # Time in different power states
system.mem_ctrls0_0.memoryStateTime::ACT 703278610250                       # Time in different power states
system.mem_ctrls0_0.memoryStateTime::ACT_PDN            0                       # Time in different power states
system.mem_ctrls0_1.actEnergy             10462389840                       # Energy for activate commands per rank (pJ)
system.mem_ctrls0_1.preEnergy              5708645250                       # Energy for precharge commands per rank (pJ)
system.mem_ctrls0_1.readEnergy             7518381000                       # Energy for read commands per rank (pJ)
system.mem_ctrls0_1.writeEnergy            3325192560                       # Energy for write commands per rank (pJ)
system.mem_ctrls0_1.refreshEnergy         53869726560                       # Energy for refresh commands per rank (pJ)
system.mem_ctrls0_1.actBackEnergy        500181456105                       # Energy for active background per rank (pJ)
system.mem_ctrls0_1.preBackEnergy         56104283250                       # Energy for precharge background per rank (pJ)
system.mem_ctrls0_1.totalEnergy          637170074565                       # Total energy per rank (pJ)
system.mem_ctrls0_1.averagePower           772.545944                       # Core power per rank (mW)
system.mem_ctrls0_1.memoryStateTime::IDLE  87219731500                       # Time in different power states
system.mem_ctrls0_1.memoryStateTime::REF  27286480000                       # Time in different power states
system.mem_ctrls0_1.memoryStateTime::PRE_PDN            0                       # Time in different power states
system.mem_ctrls0_1.memoryStateTime::ACT 702645351750                       # Time in different power states
system.mem_ctrls0_1.memoryStateTime::ACT_PDN            0                       # Time in different power states
system.mem_ctrls1.bytes_read::ruby.dir_cntrl1    121587008                       # Number of bytes read from this memory
system.mem_ctrls1.bytes_read::total         121587008                       # Number of bytes read from this memory
system.mem_ctrls1.bytes_written::ruby.dir_cntrl1     65117376                       # Number of bytes written to this memory
system.mem_ctrls1.bytes_written::total       65117376                       # Number of bytes written to this memory
system.mem_ctrls1.num_reads::ruby.dir_cntrl1      1899797                       # Number of read requests responded to by this memory
system.mem_ctrls1.num_reads::total            1899797                       # Number of read requests responded to by this memory
system.mem_ctrls1.num_writes::ruby.dir_cntrl1      1017459                       # Number of write requests responded to by this memory
system.mem_ctrls1.num_writes::total           1017459                       # Number of write requests responded to by this memory
system.mem_ctrls1.bw_read::ruby.dir_cntrl1    148793569                       # Total read bandwidth from this memory (bytes/s)
system.mem_ctrls1.bw_read::total            148793569                       # Total read bandwidth from this memory (bytes/s)
system.mem_ctrls1.bw_write::ruby.dir_cntrl1     79688175                       # Write bandwidth from this memory (bytes/s)
system.mem_ctrls1.bw_write::total            79688175                       # Write bandwidth from this memory (bytes/s)
system.mem_ctrls1.bw_total::ruby.dir_cntrl1    228481744                       # Total bandwidth to/from this memory (bytes/s)
system.mem_ctrls1.bw_total::total           228481744                       # Total bandwidth to/from this memory (bytes/s)
system.mem_ctrls1.readReqs                    1899797                       # Number of read requests accepted
system.mem_ctrls1.writeReqs                   1017459                       # Number of write requests accepted
system.mem_ctrls1.readBursts                  1899797                       # Number of DRAM read bursts, including those serviced by the write queue
system.mem_ctrls1.writeBursts                 1017459                       # Number of DRAM write bursts, including those merged in the write queue
system.mem_ctrls1.bytesReadDRAM             121537280                       # Total number of bytes read from DRAM
system.mem_ctrls1.bytesReadWrQ                  49728                       # Total number of bytes read from write queue
system.mem_ctrls1.bytesWritten               65118144                       # Total number of bytes written to DRAM
system.mem_ctrls1.bytesReadSys              121587008                       # Total read bytes from the system interface side
system.mem_ctrls1.bytesWrittenSys            65117376                       # Total written bytes from the system interface side
system.mem_ctrls1.servicedByWrQ                   777                       # Number of DRAM read bursts serviced by the write queue
system.mem_ctrls1.mergedWrBursts                    0                       # Number of DRAM write bursts merged with an existing one
system.mem_ctrls1.neitherReadNorWriteReqs            0                       # Number of requests that are neither read nor write
system.mem_ctrls1.perBankRdBursts::0           119148                       # Per bank write bursts
system.mem_ctrls1.perBankRdBursts::1           117484                       # Per bank write bursts
system.mem_ctrls1.perBankRdBursts::2           119662                       # Per bank write bursts
system.mem_ctrls1.perBankRdBursts::3           118581                       # Per bank write bursts
system.mem_ctrls1.perBankRdBursts::4           122253                       # Per bank write bursts
system.mem_ctrls1.perBankRdBursts::5           114553                       # Per bank write bursts
system.mem_ctrls1.perBankRdBursts::6           114893                       # Per bank write bursts
system.mem_ctrls1.perBankRdBursts::7           116443                       # Per bank write bursts
system.mem_ctrls1.perBankRdBursts::8           124346                       # Per bank write bursts
system.mem_ctrls1.perBankRdBursts::9           127413                       # Per bank write bursts
system.mem_ctrls1.perBankRdBursts::10          122366                       # Per bank write bursts
system.mem_ctrls1.perBankRdBursts::11          118335                       # Per bank write bursts
system.mem_ctrls1.perBankRdBursts::12          116158                       # Per bank write bursts
system.mem_ctrls1.perBankRdBursts::13          118779                       # Per bank write bursts
system.mem_ctrls1.perBankRdBursts::14          116460                       # Per bank write bursts
system.mem_ctrls1.perBankRdBursts::15          112146                       # Per bank write bursts
system.mem_ctrls1.perBankWrBursts::0            64982                       # Per bank write bursts
system.mem_ctrls1.perBankWrBursts::1            62771                       # Per bank write bursts
system.mem_ctrls1.perBankWrBursts::2            63616                       # Per bank write bursts
system.mem_ctrls1.perBankWrBursts::3            65360                       # Per bank write bursts
system.mem_ctrls1.perBankWrBursts::4            63168                       # Per bank write bursts
system.mem_ctrls1.perBankWrBursts::5            62125                       # Per bank write bursts
system.mem_ctrls1.perBankWrBursts::6            61876                       # Per bank write bursts
system.mem_ctrls1.perBankWrBursts::7            61446                       # Per bank write bursts
system.mem_ctrls1.perBankWrBursts::8            65897                       # Per bank write bursts
system.mem_ctrls1.perBankWrBursts::9            65406                       # Per bank write bursts
system.mem_ctrls1.perBankWrBursts::10           64426                       # Per bank write bursts
system.mem_ctrls1.perBankWrBursts::11           63911                       # Per bank write bursts
system.mem_ctrls1.perBankWrBursts::12           63869                       # Per bank write bursts
system.mem_ctrls1.perBankWrBursts::13           64082                       # Per bank write bursts
system.mem_ctrls1.perBankWrBursts::14           62445                       # Per bank write bursts
system.mem_ctrls1.perBankWrBursts::15           62091                       # Per bank write bursts
system.mem_ctrls1.numRdRetry                        0                       # Number of times read queue was full causing retry
system.mem_ctrls1.numWrRetry                        0                       # Number of times write queue was full causing retry
system.mem_ctrls1.totGap                 817152271000                       # Total gap between requests
system.mem_ctrls1.readPktSize::0                    0                       # Read request sizes (log2)
system.mem_ctrls1.readPktSize::1                    0                       # Read request sizes (log2)
system.mem_ctrls1.readPktSize::2                    0                       # Read request sizes (log2)
system.mem_ctrls1.readPktSize::3                    0                       # Read request sizes (log2)
system.mem_ctrls1.readPktSize::4                    0                       # Read request sizes (log2)
system.mem_ctrls1.readPktSize::5                    0                       # Read request sizes (log2)
system.mem_ctrls1.readPktSize::6              1899797                       # Read request sizes (log2)
system.mem_ctrls1.writePktSize::0                   0                       # Write request sizes (log2)
system.mem_ctrls1.writePktSize::1                   0                       # Write request sizes (log2)
system.mem_ctrls1.writePktSize::2                   0                       # Write request sizes (log2)
system.mem_ctrls1.writePktSize::3                   0                       # Write request sizes (log2)
system.mem_ctrls1.writePktSize::4                   0                       # Write request sizes (log2)
system.mem_ctrls1.writePktSize::5                   0                       # Write request sizes (log2)
system.mem_ctrls1.writePktSize::6             1017459                       # Write request sizes (log2)
system.mem_ctrls1.rdQLenPdf::0                1889915                       # What read queue length does an incoming req see
system.mem_ctrls1.rdQLenPdf::1                   9080                       # What read queue length does an incoming req see
system.mem_ctrls1.rdQLenPdf::2                     24                       # What read queue length does an incoming req see
system.mem_ctrls1.rdQLenPdf::3                      1                       # What read queue length does an incoming req see
system.mem_ctrls1.rdQLenPdf::4                      0                       # What read queue length does an incoming req see
system.mem_ctrls1.rdQLenPdf::5                      0                       # What read queue length does an incoming req see
system.mem_ctrls1.rdQLenPdf::6                      0                       # What read queue length does an incoming req see
system.mem_ctrls1.rdQLenPdf::7                      0                       # What read queue length does an incoming req see
system.mem_ctrls1.rdQLenPdf::8                      0                       # What read queue length does an incoming req see
system.mem_ctrls1.rdQLenPdf::9                      0                       # What read queue length does an incoming req see
system.mem_ctrls1.rdQLenPdf::10                     0                       # What read queue length does an incoming req see
system.mem_ctrls1.rdQLenPdf::11                     0                       # What read queue length does an incoming req see
system.mem_ctrls1.rdQLenPdf::12                     0                       # What read queue length does an incoming req see
system.mem_ctrls1.rdQLenPdf::13                     0                       # What read queue length does an incoming req see
system.mem_ctrls1.rdQLenPdf::14                     0                       # What read queue length does an incoming req see
system.mem_ctrls1.rdQLenPdf::15                     0                       # What read queue length does an incoming req see
system.mem_ctrls1.rdQLenPdf::16                     0                       # What read queue length does an incoming req see
system.mem_ctrls1.rdQLenPdf::17                     0                       # What read queue length does an incoming req see
system.mem_ctrls1.rdQLenPdf::18                     0                       # What read queue length does an incoming req see
system.mem_ctrls1.rdQLenPdf::19                     0                       # What read queue length does an incoming req see
system.mem_ctrls1.rdQLenPdf::20                     0                       # What read queue length does an incoming req see
system.mem_ctrls1.rdQLenPdf::21                     0                       # What read queue length does an incoming req see
system.mem_ctrls1.rdQLenPdf::22                     0                       # What read queue length does an incoming req see
system.mem_ctrls1.rdQLenPdf::23                     0                       # What read queue length does an incoming req see
system.mem_ctrls1.rdQLenPdf::24                     0                       # What read queue length does an incoming req see
system.mem_ctrls1.rdQLenPdf::25                     0                       # What read queue length does an incoming req see
system.mem_ctrls1.rdQLenPdf::26                     0                       # What read queue length does an incoming req see
system.mem_ctrls1.rdQLenPdf::27                     0                       # What read queue length does an incoming req see
system.mem_ctrls1.rdQLenPdf::28                     0                       # What read queue length does an incoming req see
system.mem_ctrls1.rdQLenPdf::29                     0                       # What read queue length does an incoming req see
system.mem_ctrls1.rdQLenPdf::30                     0                       # What read queue length does an incoming req see
system.mem_ctrls1.rdQLenPdf::31                     0                       # What read queue length does an incoming req see
system.mem_ctrls1.wrQLenPdf::0                      0                       # What write queue length does an incoming req see
system.mem_ctrls1.wrQLenPdf::1                      0                       # What write queue length does an incoming req see
system.mem_ctrls1.wrQLenPdf::2                      0                       # What write queue length does an incoming req see
system.mem_ctrls1.wrQLenPdf::3                      0                       # What write queue length does an incoming req see
system.mem_ctrls1.wrQLenPdf::4                      0                       # What write queue length does an incoming req see
system.mem_ctrls1.wrQLenPdf::5                      0                       # What write queue length does an incoming req see
system.mem_ctrls1.wrQLenPdf::6                      0                       # What write queue length does an incoming req see
system.mem_ctrls1.wrQLenPdf::7                      0                       # What write queue length does an incoming req see
system.mem_ctrls1.wrQLenPdf::8                      0                       # What write queue length does an incoming req see
system.mem_ctrls1.wrQLenPdf::9                      0                       # What write queue length does an incoming req see
system.mem_ctrls1.wrQLenPdf::10                     0                       # What write queue length does an incoming req see
system.mem_ctrls1.wrQLenPdf::11                     0                       # What write queue length does an incoming req see
system.mem_ctrls1.wrQLenPdf::12                     0                       # What write queue length does an incoming req see
system.mem_ctrls1.wrQLenPdf::13                     0                       # What write queue length does an incoming req see
system.mem_ctrls1.wrQLenPdf::14                     0                       # What write queue length does an incoming req see
system.mem_ctrls1.wrQLenPdf::15                  1567                       # What write queue length does an incoming req see
system.mem_ctrls1.wrQLenPdf::16                  1708                       # What write queue length does an incoming req see
system.mem_ctrls1.wrQLenPdf::17                 63196                       # What write queue length does an incoming req see
system.mem_ctrls1.wrQLenPdf::18                 63413                       # What write queue length does an incoming req see
system.mem_ctrls1.wrQLenPdf::19                 63425                       # What write queue length does an incoming req see
system.mem_ctrls1.wrQLenPdf::20                 63415                       # What write queue length does an incoming req see
system.mem_ctrls1.wrQLenPdf::21                 63407                       # What write queue length does an incoming req see
system.mem_ctrls1.wrQLenPdf::22                 63396                       # What write queue length does an incoming req see
system.mem_ctrls1.wrQLenPdf::23                 63391                       # What write queue length does an incoming req see
system.mem_ctrls1.wrQLenPdf::24                 63401                       # What write queue length does an incoming req see
system.mem_ctrls1.wrQLenPdf::25                 63390                       # What write queue length does an incoming req see
system.mem_ctrls1.wrQLenPdf::26                 63400                       # What write queue length does an incoming req see
system.mem_ctrls1.wrQLenPdf::27                 63392                       # What write queue length does an incoming req see
system.mem_ctrls1.wrQLenPdf::28                 63392                       # What write queue length does an incoming req see
system.mem_ctrls1.wrQLenPdf::29                 63397                       # What write queue length does an incoming req see
system.mem_ctrls1.wrQLenPdf::30                 63397                       # What write queue length does an incoming req see
system.mem_ctrls1.wrQLenPdf::31                 63381                       # What write queue length does an incoming req see
system.mem_ctrls1.wrQLenPdf::32                 63379                       # What write queue length does an incoming req see
system.mem_ctrls1.wrQLenPdf::33                     9                       # What write queue length does an incoming req see
system.mem_ctrls1.wrQLenPdf::34                     1                       # What write queue length does an incoming req see
system.mem_ctrls1.wrQLenPdf::35                     1                       # What write queue length does an incoming req see
system.mem_ctrls1.wrQLenPdf::36                     1                       # What write queue length does an incoming req see
system.mem_ctrls1.wrQLenPdf::37                     0                       # What write queue length does an incoming req see
system.mem_ctrls1.wrQLenPdf::38                     0                       # What write queue length does an incoming req see
system.mem_ctrls1.wrQLenPdf::39                     0                       # What write queue length does an incoming req see
system.mem_ctrls1.wrQLenPdf::40                     0                       # What write queue length does an incoming req see
system.mem_ctrls1.wrQLenPdf::41                     0                       # What write queue length does an incoming req see
system.mem_ctrls1.wrQLenPdf::42                     0                       # What write queue length does an incoming req see
system.mem_ctrls1.wrQLenPdf::43                     0                       # What write queue length does an incoming req see
system.mem_ctrls1.wrQLenPdf::44                     0                       # What write queue length does an incoming req see
system.mem_ctrls1.wrQLenPdf::45                     0                       # What write queue length does an incoming req see
system.mem_ctrls1.wrQLenPdf::46                     0                       # What write queue length does an incoming req see
system.mem_ctrls1.wrQLenPdf::47                     0                       # What write queue length does an incoming req see
system.mem_ctrls1.wrQLenPdf::48                     0                       # What write queue length does an incoming req see
system.mem_ctrls1.wrQLenPdf::49                     0                       # What write queue length does an incoming req see
system.mem_ctrls1.wrQLenPdf::50                     0                       # What write queue length does an incoming req see
system.mem_ctrls1.wrQLenPdf::51                     0                       # What write queue length does an incoming req see
system.mem_ctrls1.wrQLenPdf::52                     0                       # What write queue length does an incoming req see
system.mem_ctrls1.wrQLenPdf::53                     0                       # What write queue length does an incoming req see
system.mem_ctrls1.wrQLenPdf::54                     0                       # What write queue length does an incoming req see
system.mem_ctrls1.wrQLenPdf::55                     0                       # What write queue length does an incoming req see
system.mem_ctrls1.wrQLenPdf::56                     0                       # What write queue length does an incoming req see
system.mem_ctrls1.wrQLenPdf::57                     0                       # What write queue length does an incoming req see
system.mem_ctrls1.wrQLenPdf::58                     0                       # What write queue length does an incoming req see
system.mem_ctrls1.wrQLenPdf::59                     0                       # What write queue length does an incoming req see
system.mem_ctrls1.wrQLenPdf::60                     0                       # What write queue length does an incoming req see
system.mem_ctrls1.wrQLenPdf::61                     0                       # What write queue length does an incoming req see
system.mem_ctrls1.wrQLenPdf::62                     0                       # What write queue length does an incoming req see
system.mem_ctrls1.wrQLenPdf::63                     0                       # What write queue length does an incoming req see
system.mem_ctrls1.bytesPerActivate::samples      2740355                       # Bytes accessed per row activation
system.mem_ctrls1.bytesPerActivate::mean    68.113499                       # Bytes accessed per row activation
system.mem_ctrls1.bytesPerActivate::gmean    66.360046                       # Bytes accessed per row activation
system.mem_ctrls1.bytesPerActivate::stdev    30.760305                       # Bytes accessed per row activation
system.mem_ctrls1.bytesPerActivate::0-127      2615216     95.43%     95.43% # Bytes accessed per row activation
system.mem_ctrls1.bytesPerActivate::128-255       119131      4.35%     99.78% # Bytes accessed per row activation
system.mem_ctrls1.bytesPerActivate::256-383         2860      0.10%     99.89% # Bytes accessed per row activation
system.mem_ctrls1.bytesPerActivate::384-511          683      0.02%     99.91% # Bytes accessed per row activation
system.mem_ctrls1.bytesPerActivate::512-639          339      0.01%     99.92% # Bytes accessed per row activation
system.mem_ctrls1.bytesPerActivate::640-767          225      0.01%     99.93% # Bytes accessed per row activation
system.mem_ctrls1.bytesPerActivate::768-895          204      0.01%     99.94% # Bytes accessed per row activation
system.mem_ctrls1.bytesPerActivate::896-1023          229      0.01%     99.95% # Bytes accessed per row activation
system.mem_ctrls1.bytesPerActivate::1024-1151         1468      0.05%    100.00% # Bytes accessed per row activation
system.mem_ctrls1.bytesPerActivate::total      2740355                       # Bytes accessed per row activation
system.mem_ctrls1.rdPerTurnAround::samples        63378                       # Reads before turning the bus around for writes
system.mem_ctrls1.rdPerTurnAround::mean     29.964862                       # Reads before turning the bus around for writes
system.mem_ctrls1.rdPerTurnAround::stdev     8.693673                       # Reads before turning the bus around for writes
system.mem_ctrls1.rdPerTurnAround::0-15            66      0.10%      0.10% # Reads before turning the bus around for writes
system.mem_ctrls1.rdPerTurnAround::16-31        42868     67.64%     67.74% # Reads before turning the bus around for writes
system.mem_ctrls1.rdPerTurnAround::32-47        19981     31.53%     99.27% # Reads before turning the bus around for writes
system.mem_ctrls1.rdPerTurnAround::48-63          177      0.28%     99.55% # Reads before turning the bus around for writes
system.mem_ctrls1.rdPerTurnAround::64-79           27      0.04%     99.59% # Reads before turning the bus around for writes
system.mem_ctrls1.rdPerTurnAround::80-95           25      0.04%     99.63% # Reads before turning the bus around for writes
system.mem_ctrls1.rdPerTurnAround::96-111           44      0.07%     99.70% # Reads before turning the bus around for writes
system.mem_ctrls1.rdPerTurnAround::112-127           53      0.08%     99.78% # Reads before turning the bus around for writes
system.mem_ctrls1.rdPerTurnAround::128-143           56      0.09%     99.87% # Reads before turning the bus around for writes
system.mem_ctrls1.rdPerTurnAround::144-159           36      0.06%     99.93% # Reads before turning the bus around for writes
system.mem_ctrls1.rdPerTurnAround::160-175           23      0.04%     99.97% # Reads before turning the bus around for writes
system.mem_ctrls1.rdPerTurnAround::176-191           13      0.02%     99.99% # Reads before turning the bus around for writes
system.mem_ctrls1.rdPerTurnAround::192-207            4      0.01%     99.99% # Reads before turning the bus around for writes
system.mem_ctrls1.rdPerTurnAround::208-223            1      0.00%     99.99% # Reads before turning the bus around for writes
system.mem_ctrls1.rdPerTurnAround::240-255            1      0.00%    100.00% # Reads before turning the bus around for writes
system.mem_ctrls1.rdPerTurnAround::256-271            1      0.00%    100.00% # Reads before turning the bus around for writes
system.mem_ctrls1.rdPerTurnAround::288-303            1      0.00%    100.00% # Reads before turning the bus around for writes
system.mem_ctrls1.rdPerTurnAround::320-335            1      0.00%    100.00% # Reads before turning the bus around for writes
system.mem_ctrls1.rdPerTurnAround::total        63378                       # Reads before turning the bus around for writes
system.mem_ctrls1.wrPerTurnAround::samples        63378                       # Writes before turning the bus around for reads
system.mem_ctrls1.wrPerTurnAround::mean     16.054009                       # Writes before turning the bus around for reads
system.mem_ctrls1.wrPerTurnAround::gmean    16.050862                       # Writes before turning the bus around for reads
system.mem_ctrls1.wrPerTurnAround::stdev     0.331345                       # Writes before turning the bus around for reads
system.mem_ctrls1.wrPerTurnAround::16           61670     97.31%     97.31% # Writes before turning the bus around for reads
system.mem_ctrls1.wrPerTurnAround::17              87      0.14%     97.44% # Writes before turning the bus around for reads
system.mem_ctrls1.wrPerTurnAround::18            1560      2.46%     99.90% # Writes before turning the bus around for reads
system.mem_ctrls1.wrPerTurnAround::19              36      0.06%     99.96% # Writes before turning the bus around for reads
system.mem_ctrls1.wrPerTurnAround::20              21      0.03%     99.99% # Writes before turning the bus around for reads
system.mem_ctrls1.wrPerTurnAround::21               3      0.00%    100.00% # Writes before turning the bus around for reads
system.mem_ctrls1.wrPerTurnAround::25               1      0.00%    100.00% # Writes before turning the bus around for reads
system.mem_ctrls1.wrPerTurnAround::total        63378                       # Writes before turning the bus around for reads
system.mem_ctrls1.totQLat                 48580163910                       # Total ticks spent queuing
system.mem_ctrls1.totMemAccLat            84186788910                       # Total ticks spent from burst creation until serviced by the DRAM
system.mem_ctrls1.totBusLat                9495100000                       # Total ticks spent in databus transfers
system.mem_ctrls1.avgQLat                    25581.70                       # Average queueing delay per DRAM burst
system.mem_ctrls1.avgBusLat                   5000.00                       # Average bus latency per DRAM burst
system.mem_ctrls1.avgMemAccLat               44331.70                       # Average memory access latency per DRAM burst
system.mem_ctrls1.avgRdBW                      148.73                       # Average DRAM read bandwidth in MiByte/s
system.mem_ctrls1.avgWrBW                       79.69                       # Average achieved write bandwidth in MiByte/s
system.mem_ctrls1.avgRdBWSys                   148.79                       # Average system read bandwidth in MiByte/s
system.mem_ctrls1.avgWrBWSys                    79.69                       # Average system write bandwidth in MiByte/s
system.mem_ctrls1.peakBW                     12800.00                       # Theoretical peak bandwidth in MiByte/s
system.mem_ctrls1.busUtil                        1.78                       # Data bus utilization in percentage
system.mem_ctrls1.busUtilRead                    1.16                       # Data bus utilization in percentage for reads
system.mem_ctrls1.busUtilWrite                   0.62                       # Data bus utilization in percentage for writes
system.mem_ctrls1.avgRdQLen                      1.00                       # Average read queue length when enqueuing
system.mem_ctrls1.avgWrQLen                     25.54                       # Average write queue length when enqueuing
system.mem_ctrls1.readRowHits                  106317                       # Number of row buffer hits during reads
system.mem_ctrls1.writeRowHits                  69815                       # Number of row buffer hits during writes
system.mem_ctrls1.readRowHitRate                 5.60                       # Row buffer hit rate for reads
system.mem_ctrls1.writeRowHitRate                6.86                       # Row buffer hit rate for writes
system.mem_ctrls1.avgGap                    280109.89                       # Average gap between requests
system.mem_ctrls1.pageHitRate                    6.04                       # Row buffer hit rate, read and write combined
system.mem_ctrls1_0.actEnergy             10296531000                       # Energy for activate commands per rank (pJ)
system.mem_ctrls1_0.preEnergy              5618146875                       # Energy for precharge commands per rank (pJ)
system.mem_ctrls1_0.readEnergy             7405983000                       # Energy for read commands per rank (pJ)
system.mem_ctrls1_0.writeEnergy            3275478000                       # Energy for write commands per rank (pJ)
system.mem_ctrls1_0.refreshEnergy         53869726560                       # Energy for refresh commands per rank (pJ)
system.mem_ctrls1_0.actBackEnergy        500093397090                       # Energy for active background per rank (pJ)
system.mem_ctrls1_0.preBackEnergy         56181528000                       # Energy for precharge background per rank (pJ)
system.mem_ctrls1_0.totalEnergy          636740790525                       # Total energy per rank (pJ)
system.mem_ctrls1_0.averagePower           772.025453                       # Core power per rank (mW)
system.mem_ctrls1_0.memoryStateTime::IDLE  86352403751                       # Time in different power states
system.mem_ctrls1_0.memoryStateTime::REF  27286480000                       # Time in different power states
system.mem_ctrls1_0.memoryStateTime::PRE_PDN            0                       # Time in different power states
system.mem_ctrls1_0.memoryStateTime::ACT 703513081249                       # Time in different power states
system.mem_ctrls1_0.memoryStateTime::ACT_PDN            0                       # Time in different power states
system.mem_ctrls1_1.actEnergy             10449416880                       # Energy for activate commands per rank (pJ)
system.mem_ctrls1_1.preEnergy              5701566750                       # Energy for precharge commands per rank (pJ)
system.mem_ctrls1_1.readEnergy             7514824200                       # Energy for read commands per rank (pJ)
system.mem_ctrls1_1.writeEnergy            3320669520                       # Energy for write commands per rank (pJ)
system.mem_ctrls1_1.refreshEnergy         53869726560                       # Energy for refresh commands per rank (pJ)
system.mem_ctrls1_1.actBackEnergy        500283293445                       # Energy for active background per rank (pJ)
system.mem_ctrls1_1.preBackEnergy         56014952250                       # Energy for precharge background per rank (pJ)
system.mem_ctrls1_1.totalEnergy          637154449605                       # Total energy per rank (pJ)
system.mem_ctrls1_1.averagePower           772.527000                       # Core power per rank (mW)
system.mem_ctrls1_1.memoryStateTime::IDLE  87170497752                       # Time in different power states
system.mem_ctrls1_1.memoryStateTime::REF  27286480000                       # Time in different power states
system.mem_ctrls1_1.memoryStateTime::PRE_PDN            0                       # Time in different power states
system.mem_ctrls1_1.memoryStateTime::ACT 702694387248                       # Time in different power states
system.mem_ctrls1_1.memoryStateTime::ACT_PDN            0                       # Time in different power states
system.cpu_voltage_domain.voltage                   1                       # Voltage in Volts
system.cpu_clk_domain.clock                       500                       # Clock period in ticks
system.cpu0.apic_clk_domain.clock                8000                       # Clock period in ticks
system.cpu0.numCycles                      1635071679                       # number of cpu cycles simulated
system.cpu0.numWorkItemsStarted                     0                       # number of work items this cpu started
system.cpu0.numWorkItemsCompleted                   0                       # number of work items this cpu completed
system.cpu0.kern.inst.arm                           0                       # number of arm instructions executed
system.cpu0.kern.inst.quiesce                       0                       # number of quiesce instructions executed
system.cpu0.committedInsts                    1368130                       # Number of instructions committed
system.cpu0.committedOps                      2861261                       # Number of ops (including micro ops) committed
system.cpu0.num_int_alu_accesses              2813671                       # Number of integer alu accesses
system.cpu0.num_fp_alu_accesses                    68                       # Number of float alu accesses
system.cpu0.num_func_calls                      76062                       # number of times a function call or return occured
system.cpu0.num_conditional_control_insts       236437                       # number of instructions that are conditional controls
system.cpu0.num_int_insts                     2813671                       # number of integer instructions
system.cpu0.num_fp_insts                           68                       # number of float instructions
system.cpu0.num_int_register_reads            5460406                       # number of times the integer registers were read
system.cpu0.num_int_register_writes           2300898                       # number of times the integer registers were written
system.cpu0.num_fp_register_reads                  70                       # number of times the floating registers were read
system.cpu0.num_fp_register_writes                 62                       # number of times the floating registers were written
system.cpu0.num_cc_register_reads             1766569                       # number of times the CC registers were read
system.cpu0.num_cc_register_writes             957223                       # number of times the CC registers were written
system.cpu0.num_mem_refs                       578365                       # number of memory refs
system.cpu0.num_load_insts                     359299                       # Number of load instructions
system.cpu0.num_store_insts                    219066                       # Number of store instructions
system.cpu0.num_idle_cycles              1626555756.917947                       # Number of idle cycles
system.cpu0.num_busy_cycles              8515922.082053                       # Number of busy cycles
system.cpu0.not_idle_fraction                0.005208                       # Percentage of non-idle cycles
system.cpu0.idle_fraction                    0.994792                       # Percentage of idle cycles
system.cpu0.Branches                           335743                       # Number of branches fetched
system.cpu0.op_class::No_OpClass                31029      1.08%      1.08% # Class of executed instruction
system.cpu0.op_class::IntAlu                  2241742     78.33%     79.42% # Class of executed instruction
system.cpu0.op_class::IntMult                    3905      0.14%     79.55% # Class of executed instruction
system.cpu0.op_class::IntDiv                     6757      0.24%     79.79% # Class of executed instruction
system.cpu0.op_class::FloatAdd                     24      0.00%     79.79% # Class of executed instruction
system.cpu0.op_class::FloatCmp                      0      0.00%     79.79% # Class of executed instruction
system.cpu0.op_class::FloatCvt                      0      0.00%     79.79% # Class of executed instruction
system.cpu0.op_class::FloatMult                     0      0.00%     79.79% # Class of executed instruction
system.cpu0.op_class::FloatDiv                      0      0.00%     79.79% # Class of executed instruction
system.cpu0.op_class::FloatSqrt                     0      0.00%     79.79% # Class of executed instruction
system.cpu0.op_class::SimdAdd                       0      0.00%     79.79% # Class of executed instruction
system.cpu0.op_class::SimdAddAcc                    0      0.00%     79.79% # Class of executed instruction
system.cpu0.op_class::SimdAlu                       0      0.00%     79.79% # Class of executed instruction
system.cpu0.op_class::SimdCmp                       0      0.00%     79.79% # Class of executed instruction
system.cpu0.op_class::SimdCvt                       0      0.00%     79.79% # Class of executed instruction
system.cpu0.op_class::SimdMisc                      0      0.00%     79.79% # Class of executed instruction
system.cpu0.op_class::SimdMult                      0      0.00%     79.79% # Class of executed instruction
system.cpu0.op_class::SimdMultAcc                   0      0.00%     79.79% # Class of executed instruction
system.cpu0.op_class::SimdShift                     0      0.00%     79.79% # Class of executed instruction
system.cpu0.op_class::SimdShiftAcc                  0      0.00%     79.79% # Class of executed instruction
system.cpu0.op_class::SimdSqrt                      0      0.00%     79.79% # Class of executed instruction
system.cpu0.op_class::SimdFloatAdd                  0      0.00%     79.79% # Class of executed instruction
system.cpu0.op_class::SimdFloatAlu                  0      0.00%     79.79% # Class of executed instruction
system.cpu0.op_class::SimdFloatCmp                  0      0.00%     79.79% # Class of executed instruction
system.cpu0.op_class::SimdFloatCvt                  0      0.00%     79.79% # Class of executed instruction
system.cpu0.op_class::SimdFloatDiv                  0      0.00%     79.79% # Class of executed instruction
system.cpu0.op_class::SimdFloatMisc                 0      0.00%     79.79% # Class of executed instruction
system.cpu0.op_class::SimdFloatMult                 0      0.00%     79.79% # Class of executed instruction
system.cpu0.op_class::SimdFloatMultAcc              0      0.00%     79.79% # Class of executed instruction
system.cpu0.op_class::SimdFloatSqrt                 0      0.00%     79.79% # Class of executed instruction
system.cpu0.op_class::MemRead                  359299     12.55%     92.35% # Class of executed instruction
system.cpu0.op_class::MemWrite                 219066      7.65%    100.00% # Class of executed instruction
system.cpu0.op_class::IprAccess                     0      0.00%    100.00% # Class of executed instruction
system.cpu0.op_class::InstPrefetch                  0      0.00%    100.00% # Class of executed instruction
system.cpu0.op_class::total                   2861822                       # Class of executed instruction
system.cpu1.apic_clk_domain.clock                8000                       # Clock period in ticks
system.cpu1.numCycles                      1632275861                       # number of cpu cycles simulated
system.cpu1.numWorkItemsStarted                     0                       # number of work items this cpu started
system.cpu1.numWorkItemsCompleted                   0                       # number of work items this cpu completed
system.cpu1.kern.inst.arm                           0                       # number of arm instructions executed
system.cpu1.kern.inst.quiesce                       0                       # number of quiesce instructions executed
system.cpu1.committedInsts                    3711023                       # Number of instructions committed
system.cpu1.committedOps                      7279907                       # Number of ops (including micro ops) committed
system.cpu1.num_int_alu_accesses              7165216                       # Number of integer alu accesses
system.cpu1.num_fp_alu_accesses                  1928                       # Number of float alu accesses
system.cpu1.num_func_calls                     172073                       # number of times a function call or return occured
system.cpu1.num_conditional_control_insts       652652                       # number of instructions that are conditional controls
system.cpu1.num_int_insts                     7165216                       # number of integer instructions
system.cpu1.num_fp_insts                         1928                       # number of float instructions
system.cpu1.num_int_register_reads           14044197                       # number of times the integer registers were read
system.cpu1.num_int_register_writes           5822714                       # number of times the integer registers were written
system.cpu1.num_fp_register_reads                3235                       # number of times the floating registers were read
system.cpu1.num_fp_register_writes               1535                       # number of times the floating registers were written
system.cpu1.num_cc_register_reads             4731253                       # number of times the CC registers were read
system.cpu1.num_cc_register_writes            2578171                       # number of times the CC registers were written
system.cpu1.num_mem_refs                      1522473                       # number of memory refs
system.cpu1.num_load_insts                     997020                       # Number of load instructions
system.cpu1.num_store_insts                    525453                       # Number of store instructions
system.cpu1.num_idle_cycles              1613542413.764545                       # Number of idle cycles
system.cpu1.num_busy_cycles              18733447.235455                       # Number of busy cycles
system.cpu1.not_idle_fraction                0.011477                       # Percentage of non-idle cycles
system.cpu1.idle_fraction                    0.988523                       # Percentage of idle cycles
system.cpu1.Branches                           862278                       # Number of branches fetched
system.cpu1.op_class::No_OpClass                35669      0.49%      0.49% # Class of executed instruction
system.cpu1.op_class::IntAlu                  5705983     78.38%     78.87% # Class of executed instruction
system.cpu1.op_class::IntMult                    8290      0.11%     78.98% # Class of executed instruction
system.cpu1.op_class::IntDiv                     6138      0.08%     79.07% # Class of executed instruction
system.cpu1.op_class::FloatAdd                   1446      0.02%     79.09% # Class of executed instruction
system.cpu1.op_class::FloatCmp                      0      0.00%     79.09% # Class of executed instruction
system.cpu1.op_class::FloatCvt                      0      0.00%     79.09% # Class of executed instruction
system.cpu1.op_class::FloatMult                     0      0.00%     79.09% # Class of executed instruction
system.cpu1.op_class::FloatDiv                      0      0.00%     79.09% # Class of executed instruction
system.cpu1.op_class::FloatSqrt                     0      0.00%     79.09% # Class of executed instruction
system.cpu1.op_class::SimdAdd                       0      0.00%     79.09% # Class of executed instruction
system.cpu1.op_class::SimdAddAcc                    0      0.00%     79.09% # Class of executed instruction
system.cpu1.op_class::SimdAlu                       0      0.00%     79.09% # Class of executed instruction
system.cpu1.op_class::SimdCmp                       0      0.00%     79.09% # Class of executed instruction
system.cpu1.op_class::SimdCvt                       0      0.00%     79.09% # Class of executed instruction
system.cpu1.op_class::SimdMisc                      0      0.00%     79.09% # Class of executed instruction
system.cpu1.op_class::SimdMult                      0      0.00%     79.09% # Class of executed instruction
system.cpu1.op_class::SimdMultAcc                   0      0.00%     79.09% # Class of executed instruction
system.cpu1.op_class::SimdShift                     0      0.00%     79.09% # Class of executed instruction
system.cpu1.op_class::SimdShiftAcc                  0      0.00%     79.09% # Class of executed instruction
system.cpu1.op_class::SimdSqrt                      0      0.00%     79.09% # Class of executed instruction
system.cpu1.op_class::SimdFloatAdd                  0      0.00%     79.09% # Class of executed instruction
system.cpu1.op_class::SimdFloatAlu                  0      0.00%     79.09% # Class of executed instruction
system.cpu1.op_class::SimdFloatCmp                  0      0.00%     79.09% # Class of executed instruction
system.cpu1.op_class::SimdFloatCvt                  0      0.00%     79.09% # Class of executed instruction
system.cpu1.op_class::SimdFloatDiv                  0      0.00%     79.09% # Class of executed instruction
system.cpu1.op_class::SimdFloatMisc                 0      0.00%     79.09% # Class of executed instruction
system.cpu1.op_class::SimdFloatMult                 0      0.00%     79.09% # Class of executed instruction
system.cpu1.op_class::SimdFloatMultAcc              0      0.00%     79.09% # Class of executed instruction
system.cpu1.op_class::SimdFloatSqrt                 0      0.00%     79.09% # Class of executed instruction
system.cpu1.op_class::MemRead                  997020     13.70%     92.78% # Class of executed instruction
system.cpu1.op_class::MemWrite                 525453      7.22%    100.00% # Class of executed instruction
system.cpu1.op_class::IprAccess                     0      0.00%    100.00% # Class of executed instruction
system.cpu1.op_class::InstPrefetch                  0      0.00%    100.00% # Class of executed instruction
system.cpu1.op_class::total                   7279999                       # Class of executed instruction
[...]
system.ruby.DMA_Controller.WriteRequest  |        2496    100.00%    100.00% |           0      0.00%    100.00%
system.ruby.DMA_Controller.WriteRequest::total         2496                      
system.ruby.DMA_Controller.Data          |       57138    100.00%    100.00% |           0      0.00%    100.00%
system.ruby.DMA_Controller.Data::total          57138                      
system.ruby.DMA_Controller.Ack           |        2496    100.00%    100.00% |           0      0.00%    100.00%
system.ruby.DMA_Controller.Ack::total            2496                      
system.ruby.DMA_Controller.READY.ReadRequest |       57138    100.00%    100.00% |           0      0.00%    100.00%
system.ruby.DMA_Controller.READY.ReadRequest::total        57138                      
system.ruby.DMA_Controller.READY.WriteRequest |        2496    100.00%    100.00% |           0      0.00%    100.00%
system.ruby.DMA_Controller.READY.WriteRequest::total         2496                      
system.ruby.DMA_Controller.BUSY_RD.Data  |       57138    100.00%    100.00% |           0      0.00%    100.00%
system.ruby.DMA_Controller.BUSY_RD.Data::total        57138                      
system.ruby.DMA_Controller.BUSY_WR.Ack   |        2496    100.00%    100.00% |           0      0.00%    100.00%
system.ruby.DMA_Controller.BUSY_WR.Ack::total         2496                      
system.ruby.L1Cache_Controller.Load      |     1062326      0.83%      0.83% |    37655780     29.56%     30.39% |    87980601     69.06%     99.45% |      696136      0.55%    100.00%
system.ruby.L1Cache_Controller.Load::total    127394843                      
system.ruby.L1Cache_Controller.Ifetch    |     5821751      1.14%      1.14% |   138527563     27.05%     28.19% |   363887280     71.05%     99.24% |     3894454      0.76%    100.00%
system.ruby.L1Cache_Controller.Ifetch::total    512131048                      
system.ruby.L1Cache_Controller.Store     |      822722      1.95%      1.95% |    16366622     38.84%     40.79% |    24392302     57.88%     98.67% |      562050      1.33%    100.00%
system.ruby.L1Cache_Controller.Store::total     42143696                      
system.ruby.L1Cache_Controller.Inv       |       63203     27.43%     27.43% |       53963     23.42%     50.86% |       52013     22.58%     73.43% |       61205     26.57%    100.00%
system.ruby.L1Cache_Controller.Inv::total       230384                      
system.ruby.L1Cache_Controller.L1_Replacement |       95549      0.72%      0.72% |     5716614     43.29%     44.02% |     7320280     55.44%     99.46% |       71666      0.54%    100.00%
system.ruby.L1Cache_Controller.L1_Replacement::total     13204109                      
system.ruby.L1Cache_Controller.Fwd_GETX  |         966     24.25%     24.25% |        1311     32.91%     57.17% |         723     18.15%     75.32% |         983     24.68%    100.00%
system.ruby.L1Cache_Controller.Fwd_GETX::total         3983                      
system.ruby.L1Cache_Controller.Fwd_GETS  |        5778     31.27%     31.27% |        5174     28.01%     59.28% |        4133     22.37%     81.65% |        3390     18.35%    100.00%
system.ruby.L1Cache_Controller.Fwd_GETS::total        18475                      
system.ruby.L1Cache_Controller.Data      |         209     22.45%     22.45% |         177     19.01%     41.46% |         344     36.95%     78.41% |         201     21.59%    100.00%
system.ruby.L1Cache_Controller.Data::total          931                      
system.ruby.L1Cache_Controller.Data_Exclusive |       35601      0.38%      0.38% |     4317270     46.43%     46.82% |     4915045     52.86%     99.68% |       30049      0.32%    100.00%
system.ruby.L1Cache_Controller.Data_Exclusive::total      9297965                      
system.ruby.L1Cache_Controller.DataS_fromL1 |        5608     30.35%     30.35% |        3147     17.03%     47.39% |        3676     19.90%     67.29% |        6044     32.71%    100.00%
system.ruby.L1Cache_Controller.DataS_fromL1::total        18475                      
system.ruby.L1Cache_Controller.Data_all_Acks |      104381      2.57%      2.57% |     1430240     35.26%     37.84% |     2440980     60.18%     98.02% |       80277      1.98%    100.00%
system.ruby.L1Cache_Controller.Data_all_Acks::total      4055878                      
system.ruby.L1Cache_Controller.Ack       |        7368     44.80%     44.80% |        3260     19.82%     64.62% |        3057     18.59%     83.20% |        2763     16.80%    100.00%
system.ruby.L1Cache_Controller.Ack::total        16448                      
system.ruby.L1Cache_Controller.Ack_all   |        3995     35.22%     35.22% |        2535     22.35%     57.56% |        2505     22.08%     79.65% |        2309     20.35%    100.00%
system.ruby.L1Cache_Controller.Ack_all::total        11344                      
system.ruby.L1Cache_Controller.WB_Ack    |       36114      0.28%      0.28% |     5649661     43.65%     43.93% |     7227836     55.84%     99.76% |       30511      0.24%    100.00%
system.ruby.L1Cache_Controller.WB_Ack::total     12944122                      
system.ruby.L1Cache_Controller.NP.Load   |       33981      0.36%      0.36% |     4324414     46.24%     46.61% |     4964435     53.09%     99.69% |       28914      0.31%    100.00%
system.ruby.L1Cache_Controller.NP.Load::total      9351744                      
system.ruby.L1Cache_Controller.NP.Ifetch |       49790     29.66%     29.66% |       50171     29.88%     59.54% |       36490     21.73%     81.27% |       31445     18.73%    100.00%
system.ruby.L1Cache_Controller.NP.Ifetch::total       167896                      
system.ruby.L1Cache_Controller.NP.Store  |       11968      0.32%      0.32% |     1342029     36.42%     36.74% |     2319926     62.95%     99.69% |       11307      0.31%    100.00%
system.ruby.L1Cache_Controller.NP.Store::total      3685230                      
system.ruby.L1Cache_Controller.NP.Inv    |        6742     17.89%     17.89% |       13367     35.47%     53.37% |        8043     21.34%     74.71% |        9530     25.29%    100.00%
system.ruby.L1Cache_Controller.NP.Inv::total        37682                      
system.ruby.L1Cache_Controller.I.Load    |       12050     30.97%     30.97% |        8011     20.59%     51.56% |        5939     15.26%     66.82% |       12910     33.18%    100.00%
system.ruby.L1Cache_Controller.I.Load::total        38910                      
system.ruby.L1Cache_Controller.I.Ifetch  |       29707     27.90%     27.90% |       21792     20.46%     48.36% |       30307     28.46%     76.82% |       24682     23.18%    100.00%
system.ruby.L1Cache_Controller.I.Ifetch::total       106488                      
system.ruby.L1Cache_Controller.I.Store   |        8303     36.13%     36.13% |        4415     19.21%     55.35% |        2948     12.83%     68.18% |        7313     31.82%    100.00%
system.ruby.L1Cache_Controller.I.Store::total        22979                      
system.ruby.L1Cache_Controller.I.L1_Replacement |        7205     25.95%     25.95% |        7387     26.60%     52.55% |        5642     20.32%     72.86% |        7536     27.14%    100.00%
system.ruby.L1Cache_Controller.I.L1_Replacement::total        27770                      
system.ruby.L1Cache_Controller.S.Load    |      132631      5.36%      5.36% |      647144     26.14%     31.49% |     1590776     64.25%     95.74% |      105546      4.26%    100.00%
system.ruby.L1Cache_Controller.S.Load::total      2476097                      
system.ruby.L1Cache_Controller.S.Ifetch  |     5742253      1.12%      1.12% |   138455600     27.05%     28.17% |   363820483     71.08%     99.25% |     3838327      0.75%    100.00%
system.ruby.L1Cache_Controller.S.Ifetch::total    511856663                      
system.ruby.L1Cache_Controller.S.Store   |        3786     36.35%     36.35% |        2360     22.66%     59.01% |        2161     20.75%     79.76% |        2108     20.24%    100.00%
system.ruby.L1Cache_Controller.S.Store::total        10415                      
system.ruby.L1Cache_Controller.S.Inv     |       39847     27.89%     27.89% |       30225     21.15%     49.04% |       37287     26.10%     75.14% |       35528     24.86%    100.00%
system.ruby.L1Cache_Controller.S.Inv::total       142887                      
system.ruby.L1Cache_Controller.S.L1_Replacement |       52230     22.49%     22.49% |       59566     25.65%     48.14% |       86802     37.38%     85.52% |       33619     14.48%    100.00%
system.ruby.L1Cache_Controller.S.L1_Replacement::total       232217                      
system.ruby.L1Cache_Controller.E.Load    |      219318      0.25%      0.25% |    22170107     25.15%     25.40% |    65626391     74.45%     99.86% |      127380      0.14%    100.00%
system.ruby.L1Cache_Controller.E.Load::total     88143196                      
system.ruby.L1Cache_Controller.E.Store   |       13215      1.14%      1.14% |      986986     85.03%     86.17% |      145358     12.52%     98.69% |       15165      1.31%    100.00%
system.ruby.L1Cache_Controller.E.Store::total      1160724                      
system.ruby.L1Cache_Controller.E.Inv     |        5535     31.61%     31.61% |        3744     21.38%     52.99% |        2496     14.25%     67.24% |        5737     32.76%    100.00%
system.ruby.L1Cache_Controller.E.Inv::total        17512                      
system.ruby.L1Cache_Controller.E.L1_Replacement |       13998      0.17%      0.17% |     3323315     40.99%     41.16% |     4763885     58.75%     99.91% |        7336      0.09%    100.00%
system.ruby.L1Cache_Controller.E.L1_Replacement::total      8108534                      
system.ruby.L1Cache_Controller.E.Fwd_GETX |         516     32.13%     32.13% |         652     40.60%     72.73% |         185     11.52%     84.25% |         253     15.75%    100.00%
system.ruby.L1Cache_Controller.E.Fwd_GETX::total         1606                      
system.ruby.L1Cache_Controller.E.Fwd_GETS |        2313     24.76%     24.76% |        2843     30.43%     55.19% |        2656     28.43%     83.62% |        1530     16.38%    100.00%
system.ruby.L1Cache_Controller.E.Fwd_GETS::total         9342                      
system.ruby.L1Cache_Controller.M.Load    |      664346      2.43%      2.43% |    10506104     38.36%     40.79% |    15793060     57.67%     98.46% |      421386      1.54%    100.00%
system.ruby.L1Cache_Controller.M.Load::total     27384896                      
system.ruby.L1Cache_Controller.M.Store   |      785450      2.11%      2.11% |    14030832     37.65%     39.76% |    21921909     58.83%     98.59% |      526157      1.41%    100.00%
system.ruby.L1Cache_Controller.M.Store::total     37264348                      
system.ruby.L1Cache_Controller.M.Inv     |       11079     34.30%     34.30% |        6625     20.51%     54.81% |        4187     12.96%     67.77% |       10410     32.23%    100.00%
system.ruby.L1Cache_Controller.M.Inv::total        32301                      
system.ruby.L1Cache_Controller.M.L1_Replacement |       22116      0.46%      0.46% |     2326346     48.11%     48.57% |     2463951     50.95%     99.52% |       23175      0.48%    100.00%
system.ruby.L1Cache_Controller.M.L1_Replacement::total      4835588                      
system.ruby.L1Cache_Controller.M.Fwd_GETX |         450     18.93%     18.93% |         659     27.72%     46.66% |         538     22.63%     69.29% |         730     30.71%    100.00%
system.ruby.L1Cache_Controller.M.Fwd_GETX::total         2377                      
system.ruby.L1Cache_Controller.M.Fwd_GETS |        3465     37.94%     37.94% |        2331     25.52%     63.46% |        1477     16.17%     79.63% |        1860     20.37%    100.00%
system.ruby.L1Cache_Controller.M.Fwd_GETS::total         9133                      
system.ruby.L1Cache_Controller.IS.Data_Exclusive |       35601      0.38%      0.38% |     4317270     46.43%     46.82% |     4915045     52.86%     99.68% |       30049      0.32%    100.00%
system.ruby.L1Cache_Controller.IS.Data_Exclusive::total      9297965                      
system.ruby.L1Cache_Controller.IS.DataS_fromL1 |        5608     30.35%     30.35% |        3147     17.03%     47.39% |        3676     19.90%     67.29% |        6044     32.71%    100.00%
system.ruby.L1Cache_Controller.IS.DataS_fromL1::total        18475                      
system.ruby.L1Cache_Controller.IS.Data_all_Acks |       84319     24.19%     24.19% |       83971     24.09%     48.28% |      118450     33.98%     82.26% |       61858     17.74%    100.00%
system.ruby.L1Cache_Controller.IS.Data_all_Acks::total       348598                      
system.ruby.L1Cache_Controller.IM.Data   |         209     22.45%     22.45% |         177     19.01%     41.46% |         344     36.95%     78.41% |         201     21.59%    100.00%
system.ruby.L1Cache_Controller.IM.Data::total          931                      
system.ruby.L1Cache_Controller.IM.Data_all_Acks |       20062      0.54%      0.54% |     1346269     36.31%     36.86% |     2322530     62.65%     99.50% |       18419      0.50%    100.00%
system.ruby.L1Cache_Controller.IM.Data_all_Acks::total      3707280                      
system.ruby.L1Cache_Controller.SM.Inv    |           0      0.00%      0.00% |           2    100.00%    100.00% |           0      0.00%    100.00% |           0      0.00%    100.00%
system.ruby.L1Cache_Controller.SM.Inv::total            2                      
system.ruby.L1Cache_Controller.SM.Ack    |        7368     44.80%     44.80% |        3260     19.82%     64.62% |        3057     18.59%     83.20% |        2763     16.80%    100.00%
system.ruby.L1Cache_Controller.SM.Ack::total        16448                      
system.ruby.L1Cache_Controller.SM.Ack_all |        3995     35.22%     35.22% |        2535     22.35%     57.56% |        2505     22.08%     79.65% |        2309     20.35%    100.00%
system.ruby.L1Cache_Controller.SM.Ack_all::total        11344                      
system.ruby.L1Cache_Controller.M_I.Ifetch |           1    100.00%    100.00% |           0      0.00%    100.00% |           0      0.00%    100.00% |           0      0.00%    100.00%
system.ruby.L1Cache_Controller.M_I.Ifetch::total            1                      
system.ruby.L1Cache_Controller.M_I.WB_Ack |       36114      0.28%      0.28% |     5649661     43.65%     43.93% |     7227836     55.84%     99.76% |       30511      0.24%    100.00%
system.ruby.L1Cache_Controller.M_I.WB_Ack::total     12944122                      
system.ruby.L2Cache_Controller.L1_GET_INSTR       274388      0.00%      0.00%
system.ruby.L2Cache_Controller.L1_GETS        9390706      0.00%      0.00%
system.ruby.L2Cache_Controller.L1_GETX        3708216      0.00%      0.00%
system.ruby.L2Cache_Controller.L1_UPGRADE        10415      0.00%      0.00%
system.ruby.L2Cache_Controller.L1_PUTX       12944122      0.00%      0.00%
system.ruby.L2Cache_Controller.L2_Replacement      4058028      0.00%      0.00%
system.ruby.L2Cache_Controller.L2_Replacement_clean      3346616      0.00%      0.00%
system.ruby.L2Cache_Controller.Mem_Data       7412108      0.00%      0.00%
system.ruby.L2Cache_Controller.Mem_Ack        7405778      0.00%      0.00%
system.ruby.L2Cache_Controller.WB_Data          41434      0.00%      0.00%
system.ruby.L2Cache_Controller.WB_Data_clean         9342      0.00%      0.00%
system.ruby.L2Cache_Controller.Ack              86277      0.00%      0.00%
system.ruby.L2Cache_Controller.Ack_all          94427      0.00%      0.00%
system.ruby.L2Cache_Controller.Unblock          18475      0.00%      0.00%
system.ruby.L2Cache_Controller.Exclusive_Unblock     13016589      0.00%      0.00%
system.ruby.L2Cache_Controller.MEM_Inv           2268      0.00%      0.00%
system.ruby.L2Cache_Controller.NP.L1_GET_INSTR        72013      0.00%      0.00%
system.ruby.L2Cache_Controller.NP.L1_GETS      4201333      0.00%      0.00%
system.ruby.L2Cache_Controller.NP.L1_GETX      3138762      0.00%      0.00%
system.ruby.L2Cache_Controller.SS.L1_GET_INSTR       202354      0.00%      0.00%
system.ruby.L2Cache_Controller.SS.L1_GETS        74212      0.00%      0.00%
system.ruby.L2Cache_Controller.SS.L1_GETX          931      0.00%      0.00%
system.ruby.L2Cache_Controller.SS.L1_UPGRADE        10413      0.00%      0.00%
system.ruby.L2Cache_Controller.SS.L2_Replacement         1912      0.00%      0.00%
system.ruby.L2Cache_Controller.SS.L2_Replacement_clean        75003      0.00%      0.00%
system.ruby.L2Cache_Controller.M.L1_GET_INSTR           17      0.00%      0.00%
system.ruby.L2Cache_Controller.M.L1_GETS      5096633      0.00%      0.00%
system.ruby.L2Cache_Controller.M.L1_GETX       564535      0.00%      0.00%
system.ruby.L2Cache_Controller.M.L2_Replacement      4053257      0.00%      0.00%
system.ruby.L2Cache_Controller.M.L2_Replacement_clean      3224867      0.00%      0.00%
system.ruby.L2Cache_Controller.M.MEM_Inv          926      0.00%      0.00%
system.ruby.L2Cache_Controller.MT.L1_GETS        18475      0.00%      0.00%
system.ruby.L2Cache_Controller.MT.L1_GETX         3983      0.00%      0.00%
system.ruby.L2Cache_Controller.MT.L1_PUTX     12944122      0.00%      0.00%
system.ruby.L2Cache_Controller.MT.L2_Replacement         2859      0.00%      0.00%
system.ruby.L2Cache_Controller.MT.L2_Replacement_clean        46746      0.00%      0.00%
system.ruby.L2Cache_Controller.MT.MEM_Inv          208      0.00%      0.00%
system.ruby.L2Cache_Controller.M_I.L1_GET_INSTR            4      0.00%      0.00%
system.ruby.L2Cache_Controller.M_I.L1_GETX            2      0.00%      0.00%
system.ruby.L2Cache_Controller.M_I.Mem_Ack      7405778      0.00%      0.00%
system.ruby.L2Cache_Controller.M_I.MEM_Inv          926      0.00%      0.00%
system.ruby.L2Cache_Controller.MT_I.WB_Data         2512      0.00%      0.00%
system.ruby.L2Cache_Controller.MT_I.Ack_all          555      0.00%      0.00%
system.ruby.L2Cache_Controller.MT_I.MEM_Inv          208      0.00%      0.00%
system.ruby.L2Cache_Controller.MCT_I.WB_Data        29789      0.00%      0.00%
system.ruby.L2Cache_Controller.MCT_I.Ack_all        16957      0.00%      0.00%
system.ruby.L2Cache_Controller.I_I.Ack          84109      0.00%      0.00%
system.ruby.L2Cache_Controller.I_I.Ack_all        75003      0.00%      0.00%
system.ruby.L2Cache_Controller.S_I.Ack           2168      0.00%      0.00%
system.ruby.L2Cache_Controller.S_I.Ack_all         1912      0.00%      0.00%
system.ruby.L2Cache_Controller.ISS.L1_GETS            1      0.00%      0.00%
system.ruby.L2Cache_Controller.ISS.Mem_Data      4201332      0.00%      0.00%
system.ruby.L2Cache_Controller.IS.Mem_Data        72014      0.00%      0.00%
system.ruby.L2Cache_Controller.IM.Mem_Data      3138762      0.00%      0.00%
system.ruby.L2Cache_Controller.SS_MB.L1_GETS           31      0.00%      0.00%
system.ruby.L2Cache_Controller.SS_MB.L1_UPGRADE            2      0.00%      0.00%
system.ruby.L2Cache_Controller.SS_MB.Exclusive_Unblock        11344      0.00%      0.00%
system.ruby.L2Cache_Controller.MT_MB.L1_GETS           17      0.00%      0.00%
system.ruby.L2Cache_Controller.MT_MB.L1_GETX            3      0.00%      0.00%
system.ruby.L2Cache_Controller.MT_MB.Exclusive_Unblock     13005245      0.00%      0.00%
system.ruby.L2Cache_Controller.MT_IIB.L1_GETS            4      0.00%      0.00%
system.ruby.L2Cache_Controller.MT_IIB.WB_Data         9108      0.00%      0.00%
system.ruby.L2Cache_Controller.MT_IIB.WB_Data_clean         9303      0.00%      0.00%
system.ruby.L2Cache_Controller.MT_IIB.Unblock           64      0.00%      0.00%
system.ruby.L2Cache_Controller.MT_IB.WB_Data           25      0.00%      0.00%
system.ruby.L2Cache_Controller.MT_IB.WB_Data_clean           39      0.00%      0.00%
system.ruby.L2Cache_Controller.MT_SB.Unblock        18411      0.00%      0.00%

---------- End Simulation Statistics   ----------
