
---------- Begin Simulation Statistics ----------
sim_seconds                                  0.793614                       # Number of seconds simulated
sim_ticks                                793614274500                       # Number of ticks simulated
final_tick                               54876885877501                       # Number of ticks from beginning of simulation (restored from checkpoints and never reset)
sim_freq                                 1000000000000                       # Frequency of simulated ticks
host_inst_rate                                 101868                       # Simulator instruction rate (inst/s)
host_op_rate                                   168681                       # Simulator op (including micro ops) rate (op/s)
host_tick_rate                              289027625                       # Simulator tick rate (ticks/s)
host_mem_usage                                2190396                       # Number of bytes of host memory used
host_seconds                                  2745.81                       # Real time elapsed on the host
sim_insts                                   279710577                       # Number of instructions simulated
sim_ops                                     463165655                       # Number of ops (including micro ops) simulated
system.voltage_domain.voltage                       1                       # Voltage in Volts
system.clk_domain.clock                          1000                       # Clock period in ticks
system.mem_ctrls.bytes_read::ruby.dir_cntrl0    239403328                       # Number of bytes read from this memory
system.mem_ctrls.bytes_read::total          239403328                       # Number of bytes read from this memory
system.mem_ctrls.bytes_written::ruby.dir_cntrl0    127642368                       # Number of bytes written to this memory
system.mem_ctrls.bytes_written::total       127642368                       # Number of bytes written to this memory
system.mem_ctrls.num_reads::ruby.dir_cntrl0      3740677                       # Number of read requests responded to by this memory
system.mem_ctrls.num_reads::total             3740677                       # Number of read requests responded to by this memory
system.mem_ctrls.num_writes::ruby.dir_cntrl0      1994412                       # Number of write requests responded to by this memory
system.mem_ctrls.num_writes::total            1994412                       # Number of write requests responded to by this memory
system.mem_ctrls.bw_read::ruby.dir_cntrl0    301662074                       # Total read bandwidth from this memory (bytes/s)
system.mem_ctrls.bw_read::total             301662074                       # Total read bandwidth from this memory (bytes/s)
system.mem_ctrls.bw_write::ruby.dir_cntrl0    160836784                       # Write bandwidth from this memory (bytes/s)
system.mem_ctrls.bw_write::total            160836784                       # Write bandwidth from this memory (bytes/s)
system.mem_ctrls.bw_total::ruby.dir_cntrl0    462498858                       # Total bandwidth to/from this memory (bytes/s)
system.mem_ctrls.bw_total::total            462498858                       # Total bandwidth to/from this memory (bytes/s)
system.mem_ctrls.readReqs                     3740677                       # Number of read requests accepted
system.mem_ctrls.writeReqs                    1994412                       # Number of write requests accepted
system.mem_ctrls.readBursts                   3740677                       # Number of DRAM read bursts, including those serviced by the write queue
system.mem_ctrls.writeBursts                  1994412                       # Number of DRAM write bursts, including those merged in the write queue
system.mem_ctrls.bytesReadDRAM              239363904                       # Total number of bytes read from DRAM
system.mem_ctrls.bytesReadWrQ                   39424                       # Total number of bytes read from write queue
system.mem_ctrls.bytesWritten               127642688                       # Total number of bytes written to DRAM
system.mem_ctrls.bytesReadSys               239403328                       # Total read bytes from the system interface side
system.mem_ctrls.bytesWrittenSys            127642368                       # Total written bytes from the system interface side
system.mem_ctrls.servicedByWrQ                    616                       # Number of DRAM read bursts serviced by the write queue
system.mem_ctrls.mergedWrBursts                     0                       # Number of DRAM write bursts merged with an existing one
system.mem_ctrls.neitherReadNorWriteReqs            0                       # Number of requests that are neither read nor write
system.mem_ctrls.perBankRdBursts::0            232635                       # Per bank write bursts
system.mem_ctrls.perBankRdBursts::1            237088                       # Per bank write bursts
system.mem_ctrls.perBankRdBursts::2            227809                       # Per bank write bursts
system.mem_ctrls.perBankRdBursts::3            225681                       # Per bank write bursts
system.mem_ctrls.perBankRdBursts::4            235104                       # Per bank write bursts
system.mem_ctrls.perBankRdBursts::5            232774                       # Per bank write bursts
system.mem_ctrls.perBankRdBursts::6            236378                       # Per bank write bursts
system.mem_ctrls.perBankRdBursts::7            235964                       # Per bank write bursts
system.mem_ctrls.perBankRdBursts::8            246078                       # Per bank write bursts
system.mem_ctrls.perBankRdBursts::9            243457                       # Per bank write bursts
system.mem_ctrls.perBankRdBursts::10           236064                       # Per bank write bursts
system.mem_ctrls.perBankRdBursts::11           231282                       # Per bank write bursts
system.mem_ctrls.perBankRdBursts::12           237322                       # Per bank write bursts
system.mem_ctrls.perBankRdBursts::13           224018                       # Per bank write bursts
system.mem_ctrls.perBankRdBursts::14           229859                       # Per bank write bursts
system.mem_ctrls.perBankRdBursts::15           228548                       # Per bank write bursts
system.mem_ctrls.perBankWrBursts::0            125586                       # Per bank write bursts
system.mem_ctrls.perBankWrBursts::1            126541                       # Per bank write bursts
system.mem_ctrls.perBankWrBursts::2            122694                       # Per bank write bursts
system.mem_ctrls.perBankWrBursts::3            122136                       # Per bank write bursts
system.mem_ctrls.perBankWrBursts::4            123440                       # Per bank write bursts
system.mem_ctrls.perBankWrBursts::5            121902                       # Per bank write bursts
system.mem_ctrls.perBankWrBursts::6            123722                       # Per bank write bursts
system.mem_ctrls.perBankWrBursts::7            125443                       # Per bank write bursts
system.mem_ctrls.perBankWrBursts::8            127272                       # Per bank write bursts
system.mem_ctrls.perBankWrBursts::9            126837                       # Per bank write bursts
system.mem_ctrls.perBankWrBursts::10           125868                       # Per bank write bursts
system.mem_ctrls.perBankWrBursts::11           125211                       # Per bank write bursts
system.mem_ctrls.perBankWrBursts::12           127577                       # Per bank write bursts
system.mem_ctrls.perBankWrBursts::13           122660                       # Per bank write bursts
system.mem_ctrls.perBankWrBursts::14           123496                       # Per bank write bursts
system.mem_ctrls.perBankWrBursts::15           124032                       # Per bank write bursts
system.mem_ctrls.numRdRetry                         0                       # Number of times read queue was full causing retry
system.mem_ctrls.numWrRetry                         0                       # Number of times write queue was full causing retry
system.mem_ctrls.totGap                  793614199500                       # Total gap between requests
system.mem_ctrls.readPktSize::0                     0                       # Read request sizes (log2)
system.mem_ctrls.readPktSize::1                     0                       # Read request sizes (log2)
system.mem_ctrls.readPktSize::2                     0                       # Read request sizes (log2)
system.mem_ctrls.readPktSize::3                     0                       # Read request sizes (log2)
system.mem_ctrls.readPktSize::4                     0                       # Read request sizes (log2)
system.mem_ctrls.readPktSize::5                     0                       # Read request sizes (log2)
system.mem_ctrls.readPktSize::6               3740677                       # Read request sizes (log2)
system.mem_ctrls.writePktSize::0                    0                       # Write request sizes (log2)
system.mem_ctrls.writePktSize::1                    0                       # Write request sizes (log2)
system.mem_ctrls.writePktSize::2                    0                       # Write request sizes (log2)
system.mem_ctrls.writePktSize::3                    0                       # Write request sizes (log2)
system.mem_ctrls.writePktSize::4                    0                       # Write request sizes (log2)
system.mem_ctrls.writePktSize::5                    0                       # Write request sizes (log2)
system.mem_ctrls.writePktSize::6              1994412                       # Write request sizes (log2)
system.mem_ctrls.rdQLenPdf::0                 3719168                       # What read queue length does an incoming req see
system.mem_ctrls.rdQLenPdf::1                   20793                       # What read queue length does an incoming req see
system.mem_ctrls.rdQLenPdf::2                     100                       # What read queue length does an incoming req see
system.mem_ctrls.rdQLenPdf::3                       0                       # What read queue length does an incoming req see
system.mem_ctrls.rdQLenPdf::4                       0                       # What read queue length does an incoming req see
system.mem_ctrls.rdQLenPdf::5                       0                       # What read queue length does an incoming req see
system.mem_ctrls.rdQLenPdf::6                       0                       # What read queue length does an incoming req see
system.mem_ctrls.rdQLenPdf::7                       0                       # What read queue length does an incoming req see
system.mem_ctrls.rdQLenPdf::8                       0                       # What read queue length does an incoming req see
system.mem_ctrls.rdQLenPdf::9                       0                       # What read queue length does an incoming req see
system.mem_ctrls.rdQLenPdf::10                      0                       # What read queue length does an incoming req see
system.mem_ctrls.rdQLenPdf::11                      0                       # What read queue length does an incoming req see
system.mem_ctrls.rdQLenPdf::12                      0                       # What read queue length does an incoming req see
system.mem_ctrls.rdQLenPdf::13                      0                       # What read queue length does an incoming req see
system.mem_ctrls.rdQLenPdf::14                      0                       # What read queue length does an incoming req see
system.mem_ctrls.rdQLenPdf::15                      0                       # What read queue length does an incoming req see
system.mem_ctrls.rdQLenPdf::16                      0                       # What read queue length does an incoming req see
system.mem_ctrls.rdQLenPdf::17                      0                       # What read queue length does an incoming req see
system.mem_ctrls.rdQLenPdf::18                      0                       # What read queue length does an incoming req see
system.mem_ctrls.rdQLenPdf::19                      0                       # What read queue length does an incoming req see
system.mem_ctrls.rdQLenPdf::20                      0                       # What read queue length does an incoming req see
system.mem_ctrls.rdQLenPdf::21                      0                       # What read queue length does an incoming req see
system.mem_ctrls.rdQLenPdf::22                      0                       # What read queue length does an incoming req see
system.mem_ctrls.rdQLenPdf::23                      0                       # What read queue length does an incoming req see
system.mem_ctrls.rdQLenPdf::24                      0                       # What read queue length does an incoming req see
system.mem_ctrls.rdQLenPdf::25                      0                       # What read queue length does an incoming req see
system.mem_ctrls.rdQLenPdf::26                      0                       # What read queue length does an incoming req see
system.mem_ctrls.rdQLenPdf::27                      0                       # What read queue length does an incoming req see
system.mem_ctrls.rdQLenPdf::28                      0                       # What read queue length does an incoming req see
system.mem_ctrls.rdQLenPdf::29                      0                       # What read queue length does an incoming req see
system.mem_ctrls.rdQLenPdf::30                      0                       # What read queue length does an incoming req see
system.mem_ctrls.rdQLenPdf::31                      0                       # What read queue length does an incoming req see
system.mem_ctrls.wrQLenPdf::0                       0                       # What write queue length does an incoming req see
system.mem_ctrls.wrQLenPdf::1                       0                       # What write queue length does an incoming req see
system.mem_ctrls.wrQLenPdf::2                       0                       # What write queue length does an incoming req see
system.mem_ctrls.wrQLenPdf::3                       0                       # What write queue length does an incoming req see
system.mem_ctrls.wrQLenPdf::4                       0                       # What write queue length does an incoming req see
system.mem_ctrls.wrQLenPdf::5                       0                       # What write queue length does an incoming req see
system.mem_ctrls.wrQLenPdf::6                       0                       # What write queue length does an incoming req see
system.mem_ctrls.wrQLenPdf::7                       0                       # What write queue length does an incoming req see
system.mem_ctrls.wrQLenPdf::8                       0                       # What write queue length does an incoming req see
system.mem_ctrls.wrQLenPdf::9                       0                       # What write queue length does an incoming req see
system.mem_ctrls.wrQLenPdf::10                      0                       # What write queue length does an incoming req see
system.mem_ctrls.wrQLenPdf::11                      0                       # What write queue length does an incoming req see
system.mem_ctrls.wrQLenPdf::12                      0                       # What write queue length does an incoming req see
system.mem_ctrls.wrQLenPdf::13                      0                       # What write queue length does an incoming req see
system.mem_ctrls.wrQLenPdf::14                      0                       # What write queue length does an incoming req see
system.mem_ctrls.wrQLenPdf::15                  61715                       # What write queue length does an incoming req see
system.mem_ctrls.wrQLenPdf::16                  66620                       # What write queue length does an incoming req see
system.mem_ctrls.wrQLenPdf::17                 105003                       # What write queue length does an incoming req see
system.mem_ctrls.wrQLenPdf::18                 118539                       # What write queue length does an incoming req see
system.mem_ctrls.wrQLenPdf::19                 119434                       # What write queue length does an incoming req see
system.mem_ctrls.wrQLenPdf::20                 119110                       # What write queue length does an incoming req see
system.mem_ctrls.wrQLenPdf::21                 117774                       # What write queue length does an incoming req see
system.mem_ctrls.wrQLenPdf::22                 116813                       # What write queue length does an incoming req see
system.mem_ctrls.wrQLenPdf::23                 116460                       # What write queue length does an incoming req see
system.mem_ctrls.wrQLenPdf::24                 116482                       # What write queue length does an incoming req see
system.mem_ctrls.wrQLenPdf::25                 116617                       # What write queue length does an incoming req see
system.mem_ctrls.wrQLenPdf::26                 117134                       # What write queue length does an incoming req see
system.mem_ctrls.wrQLenPdf::27                 116921                       # What write queue length does an incoming req see
system.mem_ctrls.wrQLenPdf::28                 116833                       # What write queue length does an incoming req see
system.mem_ctrls.wrQLenPdf::29                 117793                       # What write queue length does an incoming req see
system.mem_ctrls.wrQLenPdf::30                 118226                       # What write queue length does an incoming req see
system.mem_ctrls.wrQLenPdf::31                 116245                       # What write queue length does an incoming req see
system.mem_ctrls.wrQLenPdf::32                 116144                       # What write queue length does an incoming req see
system.mem_ctrls.wrQLenPdf::33                    401                       # What write queue length does an incoming req see
system.mem_ctrls.wrQLenPdf::34                     57                       # What write queue length does an incoming req see
system.mem_ctrls.wrQLenPdf::35                     16                       # What write queue length does an incoming req see
system.mem_ctrls.wrQLenPdf::36                     11                       # What write queue length does an incoming req see
system.mem_ctrls.wrQLenPdf::37                     10                       # What write queue length does an incoming req see
system.mem_ctrls.wrQLenPdf::38                      8                       # What write queue length does an incoming req see
system.mem_ctrls.wrQLenPdf::39                      8                       # What write queue length does an incoming req see
system.mem_ctrls.wrQLenPdf::40                      6                       # What write queue length does an incoming req see
system.mem_ctrls.wrQLenPdf::41                      7                       # What write queue length does an incoming req see
system.mem_ctrls.wrQLenPdf::42                      7                       # What write queue length does an incoming req see
system.mem_ctrls.wrQLenPdf::43                      4                       # What write queue length does an incoming req see
system.mem_ctrls.wrQLenPdf::44                      5                       # What write queue length does an incoming req see
system.mem_ctrls.wrQLenPdf::45                      3                       # What write queue length does an incoming req see
system.mem_ctrls.wrQLenPdf::46                      3                       # What write queue length does an incoming req see
system.mem_ctrls.wrQLenPdf::47                      1                       # What write queue length does an incoming req see
system.mem_ctrls.wrQLenPdf::48                      1                       # What write queue length does an incoming req see
system.mem_ctrls.wrQLenPdf::49                      1                       # What write queue length does an incoming req see
system.mem_ctrls.wrQLenPdf::50                      0                       # What write queue length does an incoming req see
system.mem_ctrls.wrQLenPdf::51                      0                       # What write queue length does an incoming req see
system.mem_ctrls.wrQLenPdf::52                      0                       # What write queue length does an incoming req see
system.mem_ctrls.wrQLenPdf::53                      0                       # What write queue length does an incoming req see
system.mem_ctrls.wrQLenPdf::54                      0                       # What write queue length does an incoming req see
system.mem_ctrls.wrQLenPdf::55                      0                       # What write queue length does an incoming req see
system.mem_ctrls.wrQLenPdf::56                      0                       # What write queue length does an incoming req see
system.mem_ctrls.wrQLenPdf::57                      0                       # What write queue length does an incoming req see
system.mem_ctrls.wrQLenPdf::58                      0                       # What write queue length does an incoming req see
system.mem_ctrls.wrQLenPdf::59                      0                       # What write queue length does an incoming req see
system.mem_ctrls.wrQLenPdf::60                      0                       # What write queue length does an incoming req see
system.mem_ctrls.wrQLenPdf::61                      0                       # What write queue length does an incoming req see
system.mem_ctrls.wrQLenPdf::62                      0                       # What write queue length does an incoming req see
system.mem_ctrls.wrQLenPdf::63                      0                       # What write queue length does an incoming req see
system.mem_ctrls.bytesPerActivate::samples      5082445                       # Bytes accessed per row activation
system.mem_ctrls.bytesPerActivate::mean     72.210625                       # Bytes accessed per row activation
system.mem_ctrls.bytesPerActivate::gmean    68.977320                       # Bytes accessed per row activation
system.mem_ctrls.bytesPerActivate::stdev    38.980076                       # Bytes accessed per row activation
system.mem_ctrls.bytesPerActivate::0-127      4596314     90.44%     90.44% # Bytes accessed per row activation
system.mem_ctrls.bytesPerActivate::128-255       460674      9.06%     99.50% # Bytes accessed per row activation
system.mem_ctrls.bytesPerActivate::256-383        14842      0.29%     99.79% # Bytes accessed per row activation
system.mem_ctrls.bytesPerActivate::384-511         4746      0.09%     99.88% # Bytes accessed per row activation
system.mem_ctrls.bytesPerActivate::512-639          637      0.01%     99.90% # Bytes accessed per row activation
system.mem_ctrls.bytesPerActivate::640-767          496      0.01%     99.91% # Bytes accessed per row activation
system.mem_ctrls.bytesPerActivate::768-895          433      0.01%     99.92% # Bytes accessed per row activation
system.mem_ctrls.bytesPerActivate::896-1023          429      0.01%     99.92% # Bytes accessed per row activation
system.mem_ctrls.bytesPerActivate::1024-1151         3874      0.08%    100.00% # Bytes accessed per row activation
system.mem_ctrls.bytesPerActivate::total      5082445                       # Bytes accessed per row activation
system.mem_ctrls.rdPerTurnAround::samples       116121                       # Reads before turning the bus around for writes
system.mem_ctrls.rdPerTurnAround::mean      32.209592                       # Reads before turning the bus around for writes
system.mem_ctrls.rdPerTurnAround::stdev     11.282342                       # Reads before turning the bus around for writes
system.mem_ctrls.rdPerTurnAround::0-15           2179      1.88%      1.88% # Reads before turning the bus around for writes
system.mem_ctrls.rdPerTurnAround::16-31         57066     49.14%     51.02% # Reads before turning the bus around for writes
system.mem_ctrls.rdPerTurnAround::32-47         52543     45.25%     96.27% # Reads before turning the bus around for writes
system.mem_ctrls.rdPerTurnAround::48-63          3489      3.00%     99.27% # Reads before turning the bus around for writes
system.mem_ctrls.rdPerTurnAround::64-79           199      0.17%     99.44% # Reads before turning the bus around for writes
system.mem_ctrls.rdPerTurnAround::80-95           120      0.10%     99.55% # Reads before turning the bus around for writes
system.mem_ctrls.rdPerTurnAround::96-111          111      0.10%     99.64% # Reads before turning the bus around for writes
system.mem_ctrls.rdPerTurnAround::112-127          127      0.11%     99.75% # Reads before turning the bus around for writes
system.mem_ctrls.rdPerTurnAround::128-143          116      0.10%     99.85% # Reads before turning the bus around for writes
system.mem_ctrls.rdPerTurnAround::144-159           66      0.06%     99.91% # Reads before turning the bus around for writes
system.mem_ctrls.rdPerTurnAround::160-175           44      0.04%     99.95% # Reads before turning the bus around for writes
system.mem_ctrls.rdPerTurnAround::176-191           20      0.02%     99.96% # Reads before turning the bus around for writes
system.mem_ctrls.rdPerTurnAround::192-207           11      0.01%     99.97% # Reads before turning the bus around for writes
system.mem_ctrls.rdPerTurnAround::208-223           11      0.01%     99.98% # Reads before turning the bus around for writes
system.mem_ctrls.rdPerTurnAround::224-239            7      0.01%     99.99% # Reads before turning the bus around for writes
system.mem_ctrls.rdPerTurnAround::240-255            4      0.00%     99.99% # Reads before turning the bus around for writes
system.mem_ctrls.rdPerTurnAround::256-271            3      0.00%    100.00% # Reads before turning the bus around for writes
system.mem_ctrls.rdPerTurnAround::304-319            2      0.00%    100.00% # Reads before turning the bus around for writes
system.mem_ctrls.rdPerTurnAround::320-335            1      0.00%    100.00% # Reads before turning the bus around for writes
system.mem_ctrls.rdPerTurnAround::336-351            1      0.00%    100.00% # Reads before turning the bus around for writes
system.mem_ctrls.rdPerTurnAround::368-383            1      0.00%    100.00% # Reads before turning the bus around for writes
system.mem_ctrls.rdPerTurnAround::total        116121                       # Reads before turning the bus around for writes
system.mem_ctrls.wrPerTurnAround::samples       116121                       # Writes before turning the bus around for reads
system.mem_ctrls.wrPerTurnAround::mean      17.175334                       # Writes before turning the bus around for reads
system.mem_ctrls.wrPerTurnAround::gmean     17.137845                       # Writes before turning the bus around for reads
system.mem_ctrls.wrPerTurnAround::stdev      1.161429                       # Writes before turning the bus around for reads
system.mem_ctrls.wrPerTurnAround::16            51557     44.40%     44.40% # Writes before turning the bus around for reads
system.mem_ctrls.wrPerTurnAround::17             2606      2.24%     46.64% # Writes before turning the bus around for reads
system.mem_ctrls.wrPerTurnAround::18            53722     46.26%     92.91% # Writes before turning the bus around for reads
system.mem_ctrls.wrPerTurnAround::19             7476      6.44%     99.35% # Writes before turning the bus around for reads
system.mem_ctrls.wrPerTurnAround::20              607      0.52%     99.87% # Writes before turning the bus around for reads
system.mem_ctrls.wrPerTurnAround::21               56      0.05%     99.92% # Writes before turning the bus around for reads
system.mem_ctrls.wrPerTurnAround::22               17      0.01%     99.93% # Writes before turning the bus around for reads
system.mem_ctrls.wrPerTurnAround::23               14      0.01%     99.94% # Writes before turning the bus around for reads
system.mem_ctrls.wrPerTurnAround::24                8      0.01%     99.95% # Writes before turning the bus around for reads
system.mem_ctrls.wrPerTurnAround::25                5      0.00%     99.95% # Writes before turning the bus around for reads
system.mem_ctrls.wrPerTurnAround::26                1      0.00%     99.96% # Writes before turning the bus around for reads
system.mem_ctrls.wrPerTurnAround::28                2      0.00%     99.96% # Writes before turning the bus around for reads
system.mem_ctrls.wrPerTurnAround::29                2      0.00%     99.96% # Writes before turning the bus around for reads
system.mem_ctrls.wrPerTurnAround::30                1      0.00%     99.96% # Writes before turning the bus around for reads
system.mem_ctrls.wrPerTurnAround::31                1      0.00%     99.96% # Writes before turning the bus around for reads
system.mem_ctrls.wrPerTurnAround::33                1      0.00%     99.96% # Writes before turning the bus around for reads
system.mem_ctrls.wrPerTurnAround::34               10      0.01%     99.97% # Writes before turning the bus around for reads
system.mem_ctrls.wrPerTurnAround::35               28      0.02%     99.99% # Writes before turning the bus around for reads
system.mem_ctrls.wrPerTurnAround::36                2      0.00%    100.00% # Writes before turning the bus around for reads
system.mem_ctrls.wrPerTurnAround::37                1      0.00%    100.00% # Writes before turning the bus around for reads
system.mem_ctrls.wrPerTurnAround::40                2      0.00%    100.00% # Writes before turning the bus around for reads
system.mem_ctrls.wrPerTurnAround::42                1      0.00%    100.00% # Writes before turning the bus around for reads
system.mem_ctrls.wrPerTurnAround::49                1      0.00%    100.00% # Writes before turning the bus around for reads
system.mem_ctrls.wrPerTurnAround::total        116121                       # Writes before turning the bus around for reads
system.mem_ctrls.totQLat                  84480464665                       # Total ticks spent queuing
system.mem_ctrls.totMemAccLat            154606608415                       # Total ticks spent from burst creation until serviced by the DRAM
system.mem_ctrls.totBusLat                18700305000                       # Total ticks spent in databus transfers
system.mem_ctrls.avgQLat                     22587.99                       # Average queueing delay per DRAM burst
system.mem_ctrls.avgBusLat                    5000.00                       # Average bus latency per DRAM burst
system.mem_ctrls.avgMemAccLat                41337.99                       # Average memory access latency per DRAM burst
system.mem_ctrls.avgRdBW                       301.61                       # Average DRAM read bandwidth in MiByte/s
system.mem_ctrls.avgWrBW                       160.84                       # Average achieved write bandwidth in MiByte/s
system.mem_ctrls.avgRdBWSys                    301.66                       # Average system read bandwidth in MiByte/s
system.mem_ctrls.avgWrBWSys                    160.84                       # Average system write bandwidth in MiByte/s
system.mem_ctrls.peakBW                      12800.00                       # Theoretical peak bandwidth in MiByte/s
system.mem_ctrls.busUtil                         3.61                       # Data bus utilization in percentage
system.mem_ctrls.busUtilRead                     2.36                       # Data bus utilization in percentage for reads
system.mem_ctrls.busUtilWrite                    1.26                       # Data bus utilization in percentage for writes
system.mem_ctrls.avgRdQLen                       1.00                       # Average read queue length when enqueuing
system.mem_ctrls.avgWrQLen                      24.95                       # Average write queue length when enqueuing
system.mem_ctrls.readRowHits                   571137                       # Number of row buffer hits during reads
system.mem_ctrls.writeRowHits                   80895                       # Number of row buffer hits during writes
system.mem_ctrls.readRowHitRate                 15.27                       # Row buffer hit rate for reads
system.mem_ctrls.writeRowHitRate                 4.06                       # Row buffer hit rate for writes
system.mem_ctrls.avgGap                     138378.71                       # Average gap between requests
system.mem_ctrls.pageHitRate                    11.37                       # Row buffer hit rate, read and write combined
system.mem_ctrls_0.actEnergy              19136325600                       # Energy for activate commands per rank (pJ)
system.mem_ctrls_0.preEnergy              10441447500                       # Energy for precharge commands per rank (pJ)
system.mem_ctrls_0.readEnergy             14699903400                       # Energy for read commands per rank (pJ)
system.mem_ctrls_0.writeEnergy             6427699920                       # Energy for write commands per rank (pJ)
system.mem_ctrls_0.refreshEnergy          52372525920                       # Energy for refresh commands per rank (pJ)
system.mem_ctrls_0.actBackEnergy         512324568810                       # Energy for active background per rank (pJ)
system.mem_ctrls_0.preBackEnergy          31698798000                       # Energy for precharge background per rank (pJ)
system.mem_ctrls_0.totalEnergy           647101269150                       # Total energy per rank (pJ)
system.mem_ctrls_0.averagePower            807.016557                       # Core power per rank (mW)
system.mem_ctrls_0.memoryStateTime::IDLE  47006093250                       # Time in different power states
system.mem_ctrls_0.memoryStateTime::REF   26500500000                       # Time in different power states
system.mem_ctrls_0.memoryStateTime::PRE_PDN            0                       # Time in different power states
system.mem_ctrls_0.memoryStateTime::ACT  720103449500                       # Time in different power states
system.mem_ctrls_0.memoryStateTime::ACT_PDN            0                       # Time in different power states
system.mem_ctrls_1.actEnergy              19337550120                       # Energy for activate commands per rank (pJ)
system.mem_ctrls_1.preEnergy              10551242625                       # Energy for precharge commands per rank (pJ)
system.mem_ctrls_1.readEnergy             14782778400                       # Energy for read commands per rank (pJ)
system.mem_ctrls_1.writeEnergy             6500185200                       # Energy for write commands per rank (pJ)
system.mem_ctrls_1.refreshEnergy          52372525920                       # Energy for refresh commands per rank (pJ)
system.mem_ctrls_1.actBackEnergy         511780050090                       # Energy for active background per rank (pJ)
system.mem_ctrls_1.preBackEnergy          32176446000                       # Energy for precharge background per rank (pJ)
system.mem_ctrls_1.totalEnergy           647500778355                       # Total energy per rank (pJ)
system.mem_ctrls_1.averagePower            807.514795                       # Core power per rank (mW)
system.mem_ctrls_1.memoryStateTime::IDLE  46728655249                       # Time in different power states
system.mem_ctrls_1.memoryStateTime::REF   26500500000                       # Time in different power states
system.mem_ctrls_1.memoryStateTime::PRE_PDN            0                       # Time in different power states
system.mem_ctrls_1.memoryStateTime::ACT  720384376001                       # Time in different power states
system.mem_ctrls_1.memoryStateTime::ACT_PDN            0                       # Time in different power states
system.cpu_voltage_domain.voltage                   1                       # Voltage in Volts
system.cpu_clk_domain.clock                       500                       # Clock period in ticks
system.cpu0.apic_clk_domain.clock                8000                       # Clock period in ticks
system.cpu0.numCycles                      1586873450                       # number of cpu cycles simulated
system.cpu0.numWorkItemsStarted                     0                       # number of work items this cpu started
system.cpu0.numWorkItemsCompleted                   0                       # number of work items this cpu completed
system.cpu0.kern.inst.arm                           0                       # number of arm instructions executed
system.cpu0.kern.inst.quiesce                       0                       # number of quiesce instructions executed
system.cpu0.committedInsts                  269408180                       # Number of instructions committed
system.cpu0.committedOps                    442847050                       # Number of ops (including micro ops) committed
system.cpu0.num_int_alu_accesses            346816817                       # Number of integer alu accesses
system.cpu0.num_fp_alu_accesses             109594681                       # Number of float alu accesses
system.cpu0.num_func_calls                    5385040                       # number of times a function call or return occured
system.cpu0.num_conditional_control_insts     16438814                       # number of instructions that are conditional controls
system.cpu0.num_int_insts                   346816817                       # number of integer instructions
system.cpu0.num_fp_insts                    109594681                       # number of float instructions
system.cpu0.num_int_register_reads          737646759                       # number of times the integer registers were read
system.cpu0.num_int_register_writes         276284872                       # number of times the integer registers were written
system.cpu0.num_fp_register_reads           204618310                       # number of times the floating registers were read
system.cpu0.num_fp_register_writes          105641720                       # number of times the floating registers were written
system.cpu0.num_cc_register_reads           177620008                       # number of times the CC registers were read
system.cpu0.num_cc_register_writes          152873716                       # number of times the CC registers were written
system.cpu0.num_mem_refs                     92943180                       # number of memory refs
system.cpu0.num_load_insts                   73893859                       # Number of load instructions
system.cpu0.num_store_insts                  19049321                       # Number of store instructions
system.cpu0.num_idle_cycles              18246081.028660                       # Number of idle cycles
system.cpu0.num_busy_cycles              1568627368.971340                       # Number of busy cycles
system.cpu0.not_idle_fraction                0.988502                       # Percentage of non-idle cycles
system.cpu0.idle_fraction                    0.011498                       # Percentage of idle cycles
system.cpu0.Branches                         26521798                       # Number of branches fetched
system.cpu0.op_class::No_OpClass              3914497      0.88%      0.88% # Class of executed instruction
system.cpu0.op_class::IntAlu                254972649     57.58%     58.46% # Class of executed instruction
system.cpu0.op_class::IntMult                    3091      0.00%     58.46% # Class of executed instruction
system.cpu0.op_class::IntDiv                      602      0.00%     58.46% # Class of executed instruction
system.cpu0.op_class::FloatAdd               91015565     20.55%     79.01% # Class of executed instruction
system.cpu0.op_class::FloatCmp                      0      0.00%     79.01% # Class of executed instruction
system.cpu0.op_class::FloatCvt                      0      0.00%     79.01% # Class of executed instruction
system.cpu0.op_class::FloatMult                     0      0.00%     79.01% # Class of executed instruction
system.cpu0.op_class::FloatDiv                      0      0.00%     79.01% # Class of executed instruction
system.cpu0.op_class::FloatSqrt                     0      0.00%     79.01% # Class of executed instruction
system.cpu0.op_class::SimdAdd                       0      0.00%     79.01% # Class of executed instruction
system.cpu0.op_class::SimdAddAcc                    0      0.00%     79.01% # Class of executed instruction
system.cpu0.op_class::SimdAlu                       0      0.00%     79.01% # Class of executed instruction
system.cpu0.op_class::SimdCmp                       0      0.00%     79.01% # Class of executed instruction
system.cpu0.op_class::SimdCvt                       0      0.00%     79.01% # Class of executed instruction
system.cpu0.op_class::SimdMisc                      0      0.00%     79.01% # Class of executed instruction
system.cpu0.op_class::SimdMult                      0      0.00%     79.01% # Class of executed instruction
system.cpu0.op_class::SimdMultAcc                   0      0.00%     79.01% # Class of executed instruction
system.cpu0.op_class::SimdShift                     0      0.00%     79.01% # Class of executed instruction
system.cpu0.op_class::SimdShiftAcc                  0      0.00%     79.01% # Class of executed instruction
system.cpu0.op_class::SimdSqrt                      0      0.00%     79.01% # Class of executed instruction
system.cpu0.op_class::SimdFloatAdd                  0      0.00%     79.01% # Class of executed instruction
system.cpu0.op_class::SimdFloatAlu                  0      0.00%     79.01% # Class of executed instruction
system.cpu0.op_class::SimdFloatCmp                  0      0.00%     79.01% # Class of executed instruction
system.cpu0.op_class::SimdFloatCvt                  0      0.00%     79.01% # Class of executed instruction
system.cpu0.op_class::SimdFloatDiv                  0      0.00%     79.01% # Class of executed instruction
system.cpu0.op_class::SimdFloatMisc                 0      0.00%     79.01% # Class of executed instruction
system.cpu0.op_class::SimdFloatMult                 0      0.00%     79.01% # Class of executed instruction
system.cpu0.op_class::SimdFloatMultAcc              0      0.00%     79.01% # Class of executed instruction
system.cpu0.op_class::SimdFloatSqrt                 0      0.00%     79.01% # Class of executed instruction
system.cpu0.op_class::MemRead                73893859     16.69%     95.70% # Class of executed instruction
system.cpu0.op_class::MemWrite               19049321      4.30%    100.00% # Class of executed instruction
system.cpu0.op_class::IprAccess                     0      0.00%    100.00% # Class of executed instruction
system.cpu0.op_class::InstPrefetch                  0      0.00%    100.00% # Class of executed instruction
system.cpu0.op_class::total                 442849584                       # Class of executed instruction
system.cpu1.apic_clk_domain.clock                8000                       # Clock period in ticks
system.cpu1.numCycles                      1589181251                       # number of cpu cycles simulated
system.cpu1.numWorkItemsStarted                     0                       # number of work items this cpu started
system.cpu1.numWorkItemsCompleted                   0                       # number of work items this cpu completed
system.cpu1.kern.inst.arm                           0                       # number of arm instructions executed
system.cpu1.kern.inst.quiesce                       0                       # number of quiesce instructions executed
system.cpu1.committedInsts                    3051021                       # Number of instructions committed
system.cpu1.committedOps                      6057827                       # Number of ops (including micro ops) committed
system.cpu1.num_int_alu_accesses              5925460                       # Number of integer alu accesses
system.cpu1.num_fp_alu_accesses                   487                       # Number of float alu accesses
system.cpu1.num_func_calls                     126397                       # number of times a function call or return occured
system.cpu1.num_conditional_control_insts       527610                       # number of instructions that are conditional controls
system.cpu1.num_int_insts                     5925460                       # number of integer instructions
system.cpu1.num_fp_insts                          487                       # number of float instructions
system.cpu1.num_int_register_reads           11432316                       # number of times the integer registers were read
system.cpu1.num_int_register_writes           4847963                       # number of times the integer registers were written
system.cpu1.num_fp_register_reads                 791                       # number of times the floating registers were read
system.cpu1.num_fp_register_writes                356                       # number of times the floating registers were written
system.cpu1.num_cc_register_reads             3850646                       # number of times the CC registers were read
system.cpu1.num_cc_register_writes            2293496                       # number of times the CC registers were written
system.cpu1.num_mem_refs                      1168206                       # number of memory refs
system.cpu1.num_load_insts                     741578                       # Number of load instructions
system.cpu1.num_store_insts                    426628                       # Number of store instructions
system.cpu1.num_idle_cycles              1573503394.900358                       # Number of idle cycles
system.cpu1.num_busy_cycles              15677856.099642                       # Number of busy cycles
system.cpu1.not_idle_fraction                0.009865                       # Percentage of non-idle cycles
system.cpu1.idle_fraction                    0.990135                       # Percentage of idle cycles
system.cpu1.Branches                           697390                       # Number of branches fetched
system.cpu1.op_class::No_OpClass                36808      0.61%      0.61% # Class of executed instruction
system.cpu1.op_class::IntAlu                  4838230     79.87%     80.47% # Class of executed instruction
system.cpu1.op_class::IntMult                    8031      0.13%     80.61% # Class of executed instruction
system.cpu1.op_class::IntDiv                     6308      0.10%     80.71% # Class of executed instruction
system.cpu1.op_class::FloatAdd                    334      0.01%     80.72% # Class of executed instruction
system.cpu1.op_class::FloatCmp                      0      0.00%     80.72% # Class of executed instruction
system.cpu1.op_class::FloatCvt                      0      0.00%     80.72% # Class of executed instruction
system.cpu1.op_class::FloatMult                     0      0.00%     80.72% # Class of executed instruction
system.cpu1.op_class::FloatDiv                      0      0.00%     80.72% # Class of executed instruction
system.cpu1.op_class::FloatSqrt                     0      0.00%     80.72% # Class of executed instruction
system.cpu1.op_class::SimdAdd                       0      0.00%     80.72% # Class of executed instruction
system.cpu1.op_class::SimdAddAcc                    0      0.00%     80.72% # Class of executed instruction
system.cpu1.op_class::SimdAlu                       0      0.00%     80.72% # Class of executed instruction
system.cpu1.op_class::SimdCmp                       0      0.00%     80.72% # Class of executed instruction
system.cpu1.op_class::SimdCvt                       0      0.00%     80.72% # Class of executed instruction
system.cpu1.op_class::SimdMisc                      0      0.00%     80.72% # Class of executed instruction
system.cpu1.op_class::SimdMult                      0      0.00%     80.72% # Class of executed instruction
system.cpu1.op_class::SimdMultAcc                   0      0.00%     80.72% # Class of executed instruction
system.cpu1.op_class::SimdShift                     0      0.00%     80.72% # Class of executed instruction
system.cpu1.op_class::SimdShiftAcc                  0      0.00%     80.72% # Class of executed instruction
system.cpu1.op_class::SimdSqrt                      0      0.00%     80.72% # Class of executed instruction
system.cpu1.op_class::SimdFloatAdd                  0      0.00%     80.72% # Class of executed instruction
system.cpu1.op_class::SimdFloatAlu                  0      0.00%     80.72% # Class of executed instruction
system.cpu1.op_class::SimdFloatCmp                  0      0.00%     80.72% # Class of executed instruction
system.cpu1.op_class::SimdFloatCvt                  0      0.00%     80.72% # Class of executed instruction
system.cpu1.op_class::SimdFloatDiv                  0      0.00%     80.72% # Class of executed instruction
system.cpu1.op_class::SimdFloatMisc                 0      0.00%     80.72% # Class of executed instruction
system.cpu1.op_class::SimdFloatMult                 0      0.00%     80.72% # Class of executed instruction
system.cpu1.op_class::SimdFloatMultAcc              0      0.00%     80.72% # Class of executed instruction
system.cpu1.op_class::SimdFloatSqrt                 0      0.00%     80.72% # Class of executed instruction
system.cpu1.op_class::MemRead                  741578     12.24%     92.96% # Class of executed instruction
system.cpu1.op_class::MemWrite                 426628      7.04%    100.00% # Class of executed instruction
system.cpu1.op_class::IprAccess                     0      0.00%    100.00% # Class of executed instruction
system.cpu1.op_class::InstPrefetch                  0      0.00%    100.00% # Class of executed instruction
system.cpu1.op_class::total                   6057917                       # Class of executed instruction
system.cpu2.apic_clk_domain.clock                8000                       # Clock period in ticks
system.cpu2.numCycles                      1583136759                       # number of cpu cycles simulated
system.cpu2.numWorkItemsStarted                     0                       # number of work items this cpu started
system.cpu2.numWorkItemsCompleted                   0                       # number of work items this cpu completed
system.cpu2.kern.inst.arm                           0                       # number of arm instructions executed
system.cpu2.kern.inst.quiesce                       0                       # number of quiesce instructions executed
system.cpu2.committedInsts                    1250100                       # Number of instructions committed
system.cpu2.committedOps                      2594287                       # Number of ops (including micro ops) committed
system.cpu2.num_int_alu_accesses              2551707                       # Number of integer alu accesses
system.cpu2.num_fp_alu_accesses                    68                       # Number of float alu accesses
system.cpu2.num_func_calls                      67032                       # number of times a function call or return occured
system.cpu2.num_conditional_control_insts       216884                       # number of instructions that are conditional controls
system.cpu2.num_int_insts                     2551707                       # number of integer instructions
system.cpu2.num_fp_insts                           68                       # number of float instructions
system.cpu2.num_int_register_reads            4958017                       # number of times the integer registers were read
system.cpu2.num_int_register_writes           2088482                       # number of times the integer registers were written
system.cpu2.num_fp_register_reads                  70                       # number of times the floating registers were read
system.cpu2.num_fp_register_writes                 62                       # number of times the floating registers were written
system.cpu2.num_cc_register_reads             1597542                       # number of times the CC registers were read
system.cpu2.num_cc_register_writes             866418                       # number of times the CC registers were written
system.cpu2.num_mem_refs                       526651                       # number of memory refs
system.cpu2.num_load_insts                     328227                       # Number of load instructions
system.cpu2.num_store_insts                    198424                       # Number of store instructions
system.cpu2.num_idle_cycles              1577731231.205449                       # Number of idle cycles
system.cpu2.num_busy_cycles              5405527.794551                       # Number of busy cycles
system.cpu2.not_idle_fraction                0.003414                       # Percentage of non-idle cycles
system.cpu2.idle_fraction                    0.996586                       # Percentage of idle cycles
system.cpu2.Branches                           305046                       # Number of branches fetched
system.cpu2.op_class::No_OpClass                28972      1.12%      1.12% # Class of executed instruction
system.cpu2.op_class::IntAlu                  2028988     78.19%     79.31% # Class of executed instruction
system.cpu2.op_class::IntMult                    3659      0.14%     79.45% # Class of executed instruction
system.cpu2.op_class::IntDiv                     6554      0.25%     79.70% # Class of executed instruction
system.cpu2.op_class::FloatAdd                     24      0.00%     79.70% # Class of executed instruction
system.cpu2.op_class::FloatCmp                      0      0.00%     79.70% # Class of executed instruction
system.cpu2.op_class::FloatCvt                      0      0.00%     79.70% # Class of executed instruction
system.cpu2.op_class::FloatMult                     0      0.00%     79.70% # Class of executed instruction
system.cpu2.op_class::FloatDiv                      0      0.00%     79.70% # Class of executed instruction
system.cpu2.op_class::FloatSqrt                     0      0.00%     79.70% # Class of executed instruction
system.cpu2.op_class::SimdAdd                       0      0.00%     79.70% # Class of executed instruction
system.cpu2.op_class::SimdAddAcc                    0      0.00%     79.70% # Class of executed instruction
system.cpu2.op_class::SimdAlu                       0      0.00%     79.70% # Class of executed instruction
system.cpu2.op_class::SimdCmp                       0      0.00%     79.70% # Class of executed instruction
system.cpu2.op_class::SimdCvt                       0      0.00%     79.70% # Class of executed instruction
system.cpu2.op_class::SimdMisc                      0      0.00%     79.70% # Class of executed instruction
system.cpu2.op_class::SimdMult                      0      0.00%     79.70% # Class of executed instruction
system.cpu2.op_class::SimdMultAcc                   0      0.00%     79.70% # Class of executed instruction
system.cpu2.op_class::SimdShift                     0      0.00%     79.70% # Class of executed instruction
system.cpu2.op_class::SimdShiftAcc                  0      0.00%     79.70% # Class of executed instruction
system.cpu2.op_class::SimdSqrt                      0      0.00%     79.70% # Class of executed instruction
system.cpu2.op_class::SimdFloatAdd                  0      0.00%     79.70% # Class of executed instruction
system.cpu2.op_class::SimdFloatAlu                  0      0.00%     79.70% # Class of executed instruction
system.cpu2.op_class::SimdFloatCmp                  0      0.00%     79.70% # Class of executed instruction
system.cpu2.op_class::SimdFloatCvt                  0      0.00%     79.70% # Class of executed instruction
system.cpu2.op_class::SimdFloatDiv                  0      0.00%     79.70% # Class of executed instruction
system.cpu2.op_class::SimdFloatMisc                 0      0.00%     79.70% # Class of executed instruction
system.cpu2.op_class::SimdFloatMult                 0      0.00%     79.70% # Class of executed instruction
system.cpu2.op_class::SimdFloatMultAcc              0      0.00%     79.70% # Class of executed instruction
system.cpu2.op_class::SimdFloatSqrt                 0      0.00%     79.70% # Class of executed instruction
system.cpu2.op_class::MemRead                  328227     12.65%     92.35% # Class of executed instruction
system.cpu2.op_class::MemWrite                 198424      7.65%    100.00% # Class of executed instruction
system.cpu2.op_class::IprAccess                     0      0.00%    100.00% # Class of executed instruction
system.cpu2.op_class::InstPrefetch                  0      0.00%    100.00% # Class of executed instruction
system.cpu2.op_class::total                   2594848                       # Class of executed instruction
system.cpu3.apic_clk_domain.clock                8000                       # Clock period in ticks
system.cpu3.numCycles                      1585234603                       # number of cpu cycles simulated
system.cpu3.numWorkItemsStarted                     0                       # number of work items this cpu started
system.cpu3.numWorkItemsCompleted                   0                       # number of work items this cpu completed
system.cpu3.kern.inst.arm                           0                       # number of arm instructions executed
system.cpu3.kern.inst.quiesce                       0                       # number of quiesce instructions executed
system.cpu3.committedInsts                    2768744                       # Number of instructions committed
system.cpu3.committedOps                      5448254                       # Number of ops (including micro ops) committed
system.cpu3.num_int_alu_accesses              5362375                       # Number of integer alu accesses
system.cpu3.num_fp_alu_accesses                  1813                       # Number of float alu accesses
system.cpu3.num_func_calls                     132862                       # number of times a function call or return occured
system.cpu3.num_conditional_control_insts       496932                       # number of instructions that are conditional controls
system.cpu3.num_int_insts                     5362375                       # number of integer instructions
system.cpu3.num_fp_insts                         1813                       # number of float instructions
system.cpu3.num_int_register_reads           10511178                       # number of times the integer registers were read
system.cpu3.num_int_register_writes           4340330                       # number of times the integer registers were written
system.cpu3.num_fp_register_reads                3040                       # number of times the floating registers were read
system.cpu3.num_fp_register_writes               1440                       # number of times the floating registers were written
system.cpu3.num_cc_register_reads             3597170                       # number of times the CC registers were read
system.cpu3.num_cc_register_writes            1922256                       # number of times the CC registers were written
system.cpu3.num_mem_refs                      1166788                       # number of memory refs
system.cpu3.num_load_insts                     755579                       # Number of load instructions
system.cpu3.num_store_insts                    411209                       # Number of store instructions
system.cpu3.num_idle_cycles              1573549199.214393                       # Number of idle cycles
system.cpu3.num_busy_cycles              11685403.785607                       # Number of busy cycles
system.cpu3.not_idle_fraction                0.007371                       # Percentage of non-idle cycles
system.cpu3.idle_fraction                    0.992629                       # Percentage of idle cycles
system.cpu3.Branches                           654127                       # Number of branches fetched
system.cpu3.op_class::No_OpClass                28870      0.53%      0.53% # Class of executed instruction
system.cpu3.op_class::IntAlu                  4238844     77.80%     78.33% # Class of executed instruction
system.cpu3.op_class::IntMult                    4128      0.08%     78.41% # Class of executed instruction
system.cpu3.op_class::IntDiv                     8360      0.15%     78.56% # Class of executed instruction
system.cpu3.op_class::FloatAdd                   1356      0.02%     78.58% # Class of executed instruction
system.cpu3.op_class::FloatCmp                      0      0.00%     78.58% # Class of executed instruction
system.cpu3.op_class::FloatCvt                      0      0.00%     78.58% # Class of executed instruction
system.cpu3.op_class::FloatMult                     0      0.00%     78.58% # Class of executed instruction
system.cpu3.op_class::FloatDiv                      0      0.00%     78.58% # Class of executed instruction
system.cpu3.op_class::FloatSqrt                     0      0.00%     78.58% # Class of executed instruction
system.cpu3.op_class::SimdAdd                       0      0.00%     78.58% # Class of executed instruction
system.cpu3.op_class::SimdAddAcc                    0      0.00%     78.58% # Class of executed instruction
system.cpu3.op_class::SimdAlu                       0      0.00%     78.58% # Class of executed instruction
system.cpu3.op_class::SimdCmp                       0      0.00%     78.58% # Class of executed instruction
system.cpu3.op_class::SimdCvt                       0      0.00%     78.58% # Class of executed instruction
system.cpu3.op_class::SimdMisc                      0      0.00%     78.58% # Class of executed instruction
system.cpu3.op_class::SimdMult                      0      0.00%     78.58% # Class of executed instruction
system.cpu3.op_class::SimdMultAcc                   0      0.00%     78.58% # Class of executed instruction
system.cpu3.op_class::SimdShift                     0      0.00%     78.58% # Class of executed instruction
system.cpu3.op_class::SimdShiftAcc                  0      0.00%     78.58% # Class of executed instruction
system.cpu3.op_class::SimdSqrt                      0      0.00%     78.58% # Class of executed instruction
system.cpu3.op_class::SimdFloatAdd                  0      0.00%     78.58% # Class of executed instruction
system.cpu3.op_class::SimdFloatAlu                  0      0.00%     78.58% # Class of executed instruction
system.cpu3.op_class::SimdFloatCmp                  0      0.00%     78.58% # Class of executed instruction
system.cpu3.op_class::SimdFloatCvt                  0      0.00%     78.58% # Class of executed instruction
system.cpu3.op_class::SimdFloatDiv                  0      0.00%     78.58% # Class of executed instruction
system.cpu3.op_class::SimdFloatMisc                 0      0.00%     78.58% # Class of executed instruction
system.cpu3.op_class::SimdFloatMult                 0      0.00%     78.58% # Class of executed instruction
system.cpu3.op_class::SimdFloatMultAcc              0      0.00%     78.58% # Class of executed instruction
system.cpu3.op_class::SimdFloatSqrt                 0      0.00%     78.58% # Class of executed instruction
system.cpu3.op_class::MemRead                  755579     13.87%     92.45% # Class of executed instruction
system.cpu3.op_class::MemWrite                 411209      7.55%    100.00% # Class of executed instruction
system.cpu3.op_class::IprAccess                     0      0.00%    100.00% # Class of executed instruction
system.cpu3.op_class::InstPrefetch                  0      0.00%    100.00% # Class of executed instruction
system.cpu3.op_class::total                   5448346                       # Class of executed instruction
system.iobus.trans_dist::ReadReq                  554                       # Transaction distribution
system.iobus.trans_dist::ReadResp                 554                       # Transaction distribution
system.iobus.trans_dist::WriteReq                1806                       # Transaction distribution
system.iobus.trans_dist::WriteResp               1806                       # Transaction distribution
system.iobus.trans_dist::MessageReq                75                       # Transaction distribution
system.iobus.trans_dist::MessageResp               75                       # Transaction distribution
system.iobus.pkt_count_system.pc.south_bridge.io_apic.int_master::system.ruby.l1_cntrl0.sequencer.pio-slave-port           32                       # Packet count per connected master and slave (bytes)
system.iobus.pkt_count_system.pc.south_bridge.io_apic.int_master::system.ruby.l1_cntrl1.sequencer.pio-slave-port           30                       # Packet count per connected master and slave (bytes)
system.iobus.pkt_count_system.pc.south_bridge.io_apic.int_master::system.ruby.l1_cntrl2.sequencer.pio-slave-port           30                       # Packet count per connected master and slave (bytes)
system.iobus.pkt_count_system.pc.south_bridge.io_apic.int_master::system.ruby.l1_cntrl3.sequencer.pio-slave-port           32                       # Packet count per connected master and slave (bytes)
system.iobus.pkt_count_system.pc.south_bridge.io_apic.int_master::total          124                       # Packet count per connected master and slave (bytes)
system.iobus.pkt_count_system.ruby.l1_cntrl0.sequencer.mem-master-port::system.pc.south_bridge.ide.pio          656                       # Packet count per connected master and slave (bytes)
system.iobus.pkt_count_system.ruby.l1_cntrl0.sequencer.mem-master-port::system.pc.south_bridge.io_apic.pio            8                       # Packet count per connected master and slave (bytes)
system.iobus.pkt_count_system.ruby.l1_cntrl0.sequencer.mem-master-port::system.pc.com_1.pio            2                       # Packet count per connected master and slave (bytes)
system.iobus.pkt_count_system.ruby.l1_cntrl0.sequencer.mem-master-port::system.ruby.l1_cntrl0.sequencer.pio-slave-port          452                       # Packet count per connected master and slave (bytes)
system.iobus.pkt_count_system.ruby.l1_cntrl0.sequencer.mem-master-port::system.ruby.l1_cntrl1.sequencer.pio-slave-port            4                       # Packet count per connected master and slave (bytes)
system.iobus.pkt_count_system.ruby.l1_cntrl0.sequencer.mem-master-port::system.ruby.l1_cntrl2.sequencer.pio-slave-port            2                       # Packet count per connected master and slave (bytes)
system.iobus.pkt_count_system.ruby.l1_cntrl0.sequencer.mem-master-port::system.ruby.l1_cntrl3.sequencer.pio-slave-port            2                       # Packet count per connected master and slave (bytes)
system.iobus.pkt_count_system.ruby.l1_cntrl0.sequencer.mem-master-port::total         1126                       # Packet count per connected master and slave (bytes)
system.iobus.pkt_count_system.ruby.l1_cntrl1.sequencer.mem-master-port::system.pc.south_bridge.ide.pio          860                       # Packet count per connected master and slave (bytes)
system.iobus.pkt_count_system.ruby.l1_cntrl1.sequencer.mem-master-port::system.ruby.l1_cntrl0.sequencer.pio-slave-port            4                       # Packet count per connected master and slave (bytes)
system.iobus.pkt_count_system.ruby.l1_cntrl1.sequencer.mem-master-port::system.ruby.l1_cntrl1.sequencer.pio-slave-port          458                       # Packet count per connected master and slave (bytes)
system.iobus.pkt_count_system.ruby.l1_cntrl1.sequencer.mem-master-port::system.ruby.l1_cntrl2.sequencer.pio-slave-port            4                       # Packet count per connected master and slave (bytes)
system.iobus.pkt_count_system.ruby.l1_cntrl1.sequencer.mem-master-port::total         1326                       # Packet count per connected master and slave (bytes)
system.iobus.pkt_count_system.ruby.l1_cntrl2.sequencer.mem-master-port::system.pc.south_bridge.ide.pio          610                       # Packet count per connected master and slave (bytes)
system.iobus.pkt_count_system.ruby.l1_cntrl2.sequencer.mem-master-port::system.pc.south_bridge.io_apic.pio            6                       # Packet count per connected master and slave (bytes)
system.iobus.pkt_count_system.ruby.l1_cntrl2.sequencer.mem-master-port::system.pc.com_1.pio          174                       # Packet count per connected master and slave (bytes)
system.iobus.pkt_count_system.ruby.l1_cntrl2.sequencer.mem-master-port::system.ruby.l1_cntrl1.sequencer.pio-slave-port            2                       # Packet count per connected master and slave (bytes)
system.iobus.pkt_count_system.ruby.l1_cntrl2.sequencer.mem-master-port::system.ruby.l1_cntrl2.sequencer.pio-slave-port          446                       # Packet count per connected master and slave (bytes)
system.iobus.pkt_count_system.ruby.l1_cntrl2.sequencer.mem-master-port::system.ruby.l1_cntrl3.sequencer.pio-slave-port            2                       # Packet count per connected master and slave (bytes)
system.iobus.pkt_count_system.ruby.l1_cntrl2.sequencer.mem-master-port::total         1240                       # Packet count per connected master and slave (bytes)
system.iobus.pkt_count_system.ruby.l1_cntrl3.sequencer.mem-master-port::system.pc.south_bridge.ide.pio          588                       # Packet count per connected master and slave (bytes)
system.iobus.pkt_count_system.ruby.l1_cntrl3.sequencer.mem-master-port::system.pc.south_bridge.io_apic.pio            8                       # Packet count per connected master and slave (bytes)
system.iobus.pkt_count_system.ruby.l1_cntrl3.sequencer.mem-master-port::system.ruby.l1_cntrl0.sequencer.pio-slave-port            2                       # Packet count per connected master and slave (bytes)
system.iobus.pkt_count_system.ruby.l1_cntrl3.sequencer.mem-master-port::system.ruby.l1_cntrl1.sequencer.pio-slave-port            2                       # Packet count per connected master and slave (bytes)
system.iobus.pkt_count_system.ruby.l1_cntrl3.sequencer.mem-master-port::system.ruby.l1_cntrl2.sequencer.pio-slave-port            2                       # Packet count per connected master and slave (bytes)
system.iobus.pkt_count_system.ruby.l1_cntrl3.sequencer.mem-master-port::system.ruby.l1_cntrl3.sequencer.pio-slave-port          452                       # Packet count per connected master and slave (bytes)
system.iobus.pkt_count_system.ruby.l1_cntrl3.sequencer.mem-master-port::total         1054                       # Packet count per connected master and slave (bytes)
system.iobus.pkt_count::total                    4870                       # Packet count per connected master and slave (bytes)
system.iobus.pkt_size_system.pc.south_bridge.io_apic.int_master::system.ruby.l1_cntrl0.sequencer.pio-slave-port           64                       # Cumulative packet size per connected master and slave (bytes)
system.iobus.pkt_size_system.pc.south_bridge.io_apic.int_master::system.ruby.l1_cntrl1.sequencer.pio-slave-port           60                       # Cumulative packet size per connected master and slave (bytes)
system.iobus.pkt_size_system.pc.south_bridge.io_apic.int_master::system.ruby.l1_cntrl2.sequencer.pio-slave-port           60                       # Cumulative packet size per connected master and slave (bytes)
system.iobus.pkt_size_system.pc.south_bridge.io_apic.int_master::system.ruby.l1_cntrl3.sequencer.pio-slave-port           64                       # Cumulative packet size per connected master and slave (bytes)
system.iobus.pkt_size_system.pc.south_bridge.io_apic.int_master::total          248                       # Cumulative packet size per connected master and slave (bytes)
system.iobus.pkt_size_system.ruby.l1_cntrl0.sequencer.mem-master-port::system.pc.south_bridge.ide.pio          370                       # Cumulative packet size per connected master and slave (bytes)
system.iobus.pkt_size_system.ruby.l1_cntrl0.sequencer.mem-master-port::system.pc.south_bridge.io_apic.pio           16                       # Cumulative packet size per connected master and slave (bytes)
system.iobus.pkt_size_system.ruby.l1_cntrl0.sequencer.mem-master-port::system.pc.com_1.pio            1                       # Cumulative packet size per connected master and slave (bytes)
system.iobus.pkt_size_system.ruby.l1_cntrl0.sequencer.mem-master-port::system.ruby.l1_cntrl0.sequencer.pio-slave-port          904                       # Cumulative packet size per connected master and slave (bytes)
system.iobus.pkt_size_system.ruby.l1_cntrl0.sequencer.mem-master-port::system.ruby.l1_cntrl1.sequencer.pio-slave-port            8                       # Cumulative packet size per connected master and slave (bytes)
system.iobus.pkt_size_system.ruby.l1_cntrl0.sequencer.mem-master-port::system.ruby.l1_cntrl2.sequencer.pio-slave-port            4                       # Cumulative packet size per connected master and slave (bytes)
system.iobus.pkt_size_system.ruby.l1_cntrl0.sequencer.mem-master-port::system.ruby.l1_cntrl3.sequencer.pio-slave-port            4                       # Cumulative packet size per connected master and slave (bytes)
system.iobus.pkt_size_system.ruby.l1_cntrl0.sequencer.mem-master-port::total         1307                       # Cumulative packet size per connected master and slave (bytes)
system.iobus.pkt_size_system.ruby.l1_cntrl1.sequencer.mem-master-port::system.pc.south_bridge.ide.pio          490                       # Cumulative packet size per connected master and slave (bytes)
system.iobus.pkt_size_system.ruby.l1_cntrl1.sequencer.mem-master-port::system.ruby.l1_cntrl0.sequencer.pio-slave-port            8                       # Cumulative packet size per connected master and slave (bytes)
system.iobus.pkt_size_system.ruby.l1_cntrl1.sequencer.mem-master-port::system.ruby.l1_cntrl1.sequencer.pio-slave-port          916                       # Cumulative packet size per connected master and slave (bytes)
system.iobus.pkt_size_system.ruby.l1_cntrl1.sequencer.mem-master-port::system.ruby.l1_cntrl2.sequencer.pio-slave-port            8                       # Cumulative packet size per connected master and slave (bytes)
system.iobus.pkt_size_system.ruby.l1_cntrl1.sequencer.mem-master-port::total         1422                       # Cumulative packet size per connected master and slave (bytes)
system.iobus.pkt_size_system.ruby.l1_cntrl2.sequencer.mem-master-port::system.pc.south_bridge.ide.pio          344                       # Cumulative packet size per connected master and slave (bytes)
system.iobus.pkt_size_system.ruby.l1_cntrl2.sequencer.mem-master-port::system.pc.south_bridge.io_apic.pio           12                       # Cumulative packet size per connected master and slave (bytes)
system.iobus.pkt_size_system.ruby.l1_cntrl2.sequencer.mem-master-port::system.pc.com_1.pio           87                       # Cumulative packet size per connected master and slave (bytes)
system.iobus.pkt_size_system.ruby.l1_cntrl2.sequencer.mem-master-port::system.ruby.l1_cntrl1.sequencer.pio-slave-port            4                       # Cumulative packet size per connected master and slave (bytes)
system.iobus.pkt_size_system.ruby.l1_cntrl2.sequencer.mem-master-port::system.ruby.l1_cntrl2.sequencer.pio-slave-port          892                       # Cumulative packet size per connected master and slave (bytes)
system.iobus.pkt_size_system.ruby.l1_cntrl2.sequencer.mem-master-port::system.ruby.l1_cntrl3.sequencer.pio-slave-port            4                       # Cumulative packet size per connected master and slave (bytes)
system.iobus.pkt_size_system.ruby.l1_cntrl2.sequencer.mem-master-port::total         1343                       # Cumulative packet size per connected master and slave (bytes)
system.iobus.pkt_size_system.ruby.l1_cntrl3.sequencer.mem-master-port::system.pc.south_bridge.ide.pio          330                       # Cumulative packet size per connected master and slave (bytes)
system.iobus.pkt_size_system.ruby.l1_cntrl3.sequencer.mem-master-port::system.pc.south_bridge.io_apic.pio           16                       # Cumulative packet size per connected master and slave (bytes)
system.iobus.pkt_size_system.ruby.l1_cntrl3.sequencer.mem-master-port::system.ruby.l1_cntrl0.sequencer.pio-slave-port            4                       # Cumulative packet size per connected master and slave (bytes)
system.iobus.pkt_size_system.ruby.l1_cntrl3.sequencer.mem-master-port::system.ruby.l1_cntrl1.sequencer.pio-slave-port            4                       # Cumulative packet size per connected master and slave (bytes)
system.iobus.pkt_size_system.ruby.l1_cntrl3.sequencer.mem-master-port::system.ruby.l1_cntrl2.sequencer.pio-slave-port            4                       # Cumulative packet size per connected master and slave (bytes)
system.iobus.pkt_size_system.ruby.l1_cntrl3.sequencer.mem-master-port::system.ruby.l1_cntrl3.sequencer.pio-slave-port          904                       # Cumulative packet size per connected master and slave (bytes)
system.iobus.pkt_size_system.ruby.l1_cntrl3.sequencer.mem-master-port::total         1262                       # Cumulative packet size per connected master and slave (bytes)
system.iobus.pkt_size::total                     5582                       # Cumulative packet size per connected master and slave (bytes)
system.iobus.reqLayer2.occupancy              2348500                       # Layer occupancy (ticks)
system.iobus.reqLayer2.utilization                0.0                       # Layer utilization (%)
system.iobus.reqLayer8.occupancy                19997                       # Layer occupancy (ticks)
system.iobus.reqLayer8.utilization                0.0                       # Layer utilization (%)
system.iobus.reqLayer12.occupancy              113000                       # Layer occupancy (ticks)
system.iobus.reqLayer12.utilization               0.0                       # Layer utilization (%)
system.iobus.reqLayer17.occupancy              660774                       # Layer occupancy (ticks)
system.iobus.reqLayer17.utilization               0.0                       # Layer utilization (%)
system.iobus.reqLayer18.occupancy              610984                       # Layer occupancy (ticks)
system.iobus.reqLayer18.utilization               0.0                       # Layer utilization (%)
system.iobus.reqLayer19.occupancy              595485                       # Layer occupancy (ticks)
system.iobus.reqLayer19.utilization               0.0                       # Layer utilization (%)
system.iobus.reqLayer20.occupancy              603481                       # Layer occupancy (ticks)
system.iobus.reqLayer20.utilization               0.0                       # Layer utilization (%)
system.iobus.respLayer0.occupancy              105441                       # Layer occupancy (ticks)
system.iobus.respLayer0.utilization               0.0                       # Layer utilization (%)
system.iobus.respLayer2.occupancy              797000                       # Layer occupancy (ticks)
system.iobus.respLayer2.utilization               0.0                       # Layer utilization (%)
system.iobus.respLayer4.occupancy              921500                       # Layer occupancy (ticks)
system.iobus.respLayer4.utilization               0.0                       # Layer utilization (%)
system.iobus.respLayer6.occupancy              907500                       # Layer occupancy (ticks)
[...]
system.ruby.L1Cache_Controller.O.Fwd_GETS::total        17564                      
system.ruby.L1Cache_Controller.M.Load    |    12416722     76.26%     76.26% |       35051      0.22%     76.47% |       49229      0.30%     76.77% |     3781890     23.23%    100.00%
system.ruby.L1Cache_Controller.M.Load::total     16282892                      
system.ruby.L1Cache_Controller.M.Store   |       98299     48.19%     48.19% |        1917      0.94%     49.13% |        4149      2.03%     51.17% |       99598     48.83%    100.00%
system.ruby.L1Cache_Controller.M.Store::total       203963                      
system.ruby.L1Cache_Controller.M.L1_Replacement |      481964     56.62%     56.62% |        1690      0.20%     56.82% |        2633      0.31%     57.13% |      364981     42.87%    100.00%
system.ruby.L1Cache_Controller.M.L1_Replacement::total       851268                      
system.ruby.L1Cache_Controller.M.Fwd_GETX |         231     15.49%     15.49% |         122      8.18%     23.68% |         294     19.72%     43.39% |         844     56.61%    100.00%
system.ruby.L1Cache_Controller.M.Fwd_GETX::total         1491                      
system.ruby.L1Cache_Controller.M.Fwd_GETS |        1059     15.13%     15.13% |        1928     27.55%     42.68% |        1500     21.43%     64.11% |        2512     35.89%    100.00%
system.ruby.L1Cache_Controller.M.Fwd_GETS::total         6999                      
system.ruby.L1Cache_Controller.M_W.Load  |       90608     50.11%     50.11% |        3651      2.02%     52.13% |        6398      3.54%     55.67% |       80162     44.33%    100.00%
system.ruby.L1Cache_Controller.M_W.Load::total       180819                      
system.ruby.L1Cache_Controller.M_W.Store |        4202     13.63%     13.63% |         971      3.15%     16.78% |        1400      4.54%     21.32% |       24263     78.68%    100.00%
system.ruby.L1Cache_Controller.M_W.Store::total        30836                      
system.ruby.L1Cache_Controller.M_W.L1_Replacement |           3     42.86%     42.86% |           0      0.00%     42.86% |           0      0.00%     42.86% |           4     57.14%    100.00%
system.ruby.L1Cache_Controller.M_W.L1_Replacement::total            7                      
system.ruby.L1Cache_Controller.M_W.Fwd_GETX |           6     27.27%     27.27% |           0      0.00%     27.27% |          16     72.73%    100.00% |           0      0.00%    100.00%
system.ruby.L1Cache_Controller.M_W.Fwd_GETX::total           22                      
system.ruby.L1Cache_Controller.M_W.Fwd_GETS |          54     32.34%     32.34% |          20     11.98%     44.31% |          87     52.10%     96.41% |           6      3.59%    100.00%
system.ruby.L1Cache_Controller.M_W.Fwd_GETS::total          167                      
system.ruby.L1Cache_Controller.M_W.Use_Timeout |      581619     54.68%     54.68% |        5643      0.53%     55.21% |        8464      0.80%     56.01% |      467871     43.99%    100.00%
system.ruby.L1Cache_Controller.M_W.Use_Timeout::total      1063597                      
system.ruby.L1Cache_Controller.MM.Load   |    16409481     58.31%     58.31% |      590069      2.10%     60.41% |      662649      2.35%     62.76% |    10479774     37.24%    100.00%
system.ruby.L1Cache_Controller.MM.Load::total     28141973                      
system.ruby.L1Cache_Controller.MM.Store  |    19653061     59.60%     59.60% |      550766      1.67%     61.27% |      690181      2.09%     63.36% |    12081506     36.64%    100.00%
system.ruby.L1Cache_Controller.MM.Store::total     32975514                      
system.ruby.L1Cache_Controller.MM.L1_Replacement |     2425173     50.79%     50.79% |       23451      0.49%     51.28% |       19262      0.40%     51.68% |     2307323     48.32%    100.00%
system.ruby.L1Cache_Controller.MM.L1_Replacement::total      4775209                      
system.ruby.L1Cache_Controller.MM.Fwd_GETX |         843     18.35%     18.35% |        1656     36.05%     54.41% |         653     14.22%     68.63% |        1441     31.37%    100.00%
system.ruby.L1Cache_Controller.MM.Fwd_GETX::total         4593                      
system.ruby.L1Cache_Controller.MM.Fwd_GETS |        2624     23.05%     23.05% |        3402     29.88%     52.93% |        2590     22.75%     75.68% |        2769     24.32%    100.00%
system.ruby.L1Cache_Controller.MM.Fwd_GETS::total        11385                      
system.ruby.L1Cache_Controller.MM.Fwd_DMA |         131     20.76%     20.76% |         210     33.28%     54.04% |         145     22.98%     77.02% |         145     22.98%    100.00%
system.ruby.L1Cache_Controller.MM.Fwd_DMA::total          631                      
system.ruby.L1Cache_Controller.MM_W.Load |        8061     16.22%     16.22% |        8664     17.44%     33.66% |        2098      4.22%     37.88% |       30868     62.12%    100.00%
system.ruby.L1Cache_Controller.MM_W.Load::total        49691                      
system.ruby.L1Cache_Controller.MM_W.Store |     2377130     54.16%     54.16% |       96016      2.19%     56.34% |       74914      1.71%     58.05% |     1841312     41.95%    100.00%
system.ruby.L1Cache_Controller.MM_W.Store::total      4389372                      
system.ruby.L1Cache_Controller.MM_W.L1_Replacement |          80     69.57%     69.57% |           0      0.00%     69.57% |           0      0.00%     69.57% |          35     30.43%    100.00%
system.ruby.L1Cache_Controller.MM_W.L1_Replacement::total          115                      
system.ruby.L1Cache_Controller.MM_W.Fwd_GETX |           3     33.33%     33.33% |           5     55.56%     88.89% |           1     11.11%    100.00% |           0      0.00%    100.00%
system.ruby.L1Cache_Controller.MM_W.Fwd_GETX::total            9                      
system.ruby.L1Cache_Controller.MM_W.Fwd_GETS |          98     41.18%     41.18% |          29     12.18%     53.36% |          95     39.92%     93.28% |          16      6.72%    100.00%
system.ruby.L1Cache_Controller.MM_W.Fwd_GETS::total          238                      
system.ruby.L1Cache_Controller.MM_W.Use_Timeout |     2331163     50.81%     50.81% |       26322      0.57%     51.38% |       18770      0.41%     51.79% |     2211652     48.21%    100.00%
system.ruby.L1Cache_Controller.MM_W.Use_Timeout::total      4587907                      
system.ruby.L1Cache_Controller.IM.Ack    |        2914     31.12%     31.12% |        1585     16.93%     48.05% |        3158     33.72%     81.77% |        1707     18.23%    100.00%
system.ruby.L1Cache_Controller.IM.Ack::total         9364                      
system.ruby.L1Cache_Controller.IM.Exclusive_Data |     2295229     62.87%     62.87% |       11450      0.31%     63.18% |       11106      0.30%     63.48% |     1333193     36.52%    100.00%
system.ruby.L1Cache_Controller.IM.Exclusive_Data::total      3650978                      
system.ruby.L1Cache_Controller.SM.Inv    |           0      0.00%      0.00% |           0      0.00%      0.00% |           1    100.00%    100.00% |           0      0.00%    100.00%
system.ruby.L1Cache_Controller.SM.Inv::total            1                      
system.ruby.L1Cache_Controller.SM.Ack    |        3346     55.04%     55.04% |        1270     20.89%     75.93% |         819     13.47%     89.41% |         644     10.59%    100.00%
system.ruby.L1Cache_Controller.SM.Ack::total         6079                      
system.ruby.L1Cache_Controller.SM.Exclusive_Data |       31686      3.50%      3.50% |       13883      1.53%      5.03% |        6236      0.69%      5.72% |      854125     94.28%    100.00%
system.ruby.L1Cache_Controller.SM.Exclusive_Data::total       905930                      
system.ruby.L1Cache_Controller.OM.Own_GETX |          46     28.22%     28.22% |          18     11.04%     39.26% |          28     17.18%     56.44% |          71     43.56%    100.00%
system.ruby.L1Cache_Controller.OM.Own_GETX::total          163                      
system.ruby.L1Cache_Controller.OM.Ack    |        1601     46.54%     46.54% |         249      7.24%     53.78% |         761     22.12%     75.90% |         829     24.10%    100.00%
system.ruby.L1Cache_Controller.OM.Ack::total         3440                      
system.ruby.L1Cache_Controller.OM.All_acks |     2326961     51.06%     51.06% |       25351      0.56%     51.62% |       17370      0.38%     52.00% |     2187389     48.00%    100.00%
system.ruby.L1Cache_Controller.OM.All_acks::total      4557071                      
system.ruby.L1Cache_Controller.IS.Data   |     3638445     50.65%     50.65% |       63474      0.88%     51.54% |       64771      0.90%     52.44% |     3416615     47.56%    100.00%
system.ruby.L1Cache_Controller.IS.Data::total      7183305                      
system.ruby.L1Cache_Controller.IS.Exclusive_Data |      585822     53.53%     53.53% |        6614      0.60%     54.13% |        9864      0.90%     55.03% |      492134     44.97%    100.00%
system.ruby.L1Cache_Controller.IS.Exclusive_Data::total      1094434                      
system.ruby.L1Cache_Controller.SI.Load   |           2     13.33%     13.33% |           1      6.67%     20.00% |           0      0.00%     20.00% |          12     80.00%    100.00%
system.ruby.L1Cache_Controller.SI.Load::total           15                      
system.ruby.L1Cache_Controller.SI.Ifetch |           0      0.00%      0.00% |           0      0.00%      0.00% |           8    100.00%    100.00% |           0      0.00%    100.00%
system.ruby.L1Cache_Controller.SI.Ifetch::total            8                      
system.ruby.L1Cache_Controller.SI.Writeback_Ack |     1961603     65.05%     65.05% |       38032      1.26%     66.31% |       45041      1.49%     67.81% |      970740     32.19%    100.00%
system.ruby.L1Cache_Controller.SI.Writeback_Ack::total      3015416                      
system.ruby.L1Cache_Controller.SI.Writeback_Ack_Data |     1643427     50.49%     50.49% |        9562      0.29%     50.79% |       10514      0.32%     51.11% |     1591303     48.89%    100.00%
system.ruby.L1Cache_Controller.SI.Writeback_Ack_Data::total      3254806                      
system.ruby.L1Cache_Controller.OI.Writeback_Ack_Data |         231     23.01%     23.01% |         224     22.31%     45.32% |         188     18.73%     64.04% |         361     35.96%    100.00%
system.ruby.L1Cache_Controller.OI.Writeback_Ack_Data::total         1004                      
system.ruby.L1Cache_Controller.MI.Load   |           8    100.00%    100.00% |           0      0.00%    100.00% |           0      0.00%    100.00% |           0      0.00%    100.00%
system.ruby.L1Cache_Controller.MI.Load::total            8                      
system.ruby.L1Cache_Controller.MI.Writeback_Ack_Data |     2907137     51.67%     51.67% |       25141      0.45%     52.12% |       21895      0.39%     52.50% |     2672304     47.50%    100.00%
system.ruby.L1Cache_Controller.MI.Writeback_Ack_Data::total      5626477                      
system.ruby.L2Cache_Controller.L1_GETS        8277884      0.00%      0.00%
system.ruby.L2Cache_Controller.L1_GETX        4557082      0.00%      0.00%
system.ruby.L2Cache_Controller.L1_PUTO           1004      0.00%      0.00%
system.ruby.L2Cache_Controller.L1_PUTX        5626477      0.00%      0.00%
system.ruby.L2Cache_Controller.L1_PUTS_only      6139783      0.00%      0.00%
system.ruby.L2Cache_Controller.L1_PUTS         130448      0.00%      0.00%
system.ruby.L2Cache_Controller.Fwd_GETX            64      0.00%      0.00%
system.ruby.L2Cache_Controller.Fwd_DMA            761      0.00%      0.00%
system.ruby.L2Cache_Controller.IntAck               9      0.00%      0.00%
system.ruby.L2Cache_Controller.All_Acks       4019256      0.00%      0.00%
system.ruby.L2Cache_Controller.Data           8132311      0.00%      0.00%
system.ruby.L2Cache_Controller.Data_Exclusive           34      0.00%      0.00%
system.ruby.L2Cache_Controller.L1_WBCLEANDATA      3254806      0.00%      0.00%
system.ruby.L2Cache_Controller.L1_WBDIRTYDATA      5627481      0.00%      0.00%
system.ruby.L2Cache_Controller.Writeback_Ack      4016232      0.00%      0.00%
system.ruby.L2Cache_Controller.Unblock       10198721      0.00%      0.00%
system.ruby.L2Cache_Controller.Exclusive_Unblock      5651505      0.00%      0.00%
system.ruby.L2Cache_Controller.DmaAck             631      0.00%      0.00%
system.ruby.L2Cache_Controller.L2_Replacement      7205522      0.00%      0.00%
system.ruby.L2Cache_Controller.NP.L1_GETS      4113064      0.00%      0.00%
system.ruby.L2Cache_Controller.NP.L1_GETX      3079332      0.00%      0.00%
system.ruby.L2Cache_Controller.ILS.L1_GETS        15715      0.00%      0.00%
system.ruby.L2Cache_Controller.ILS.L1_GETX       880332      0.00%      0.00%
system.ruby.L2Cache_Controller.ILS.L1_PUTS_only      3235788      0.00%      0.00%
system.ruby.L2Cache_Controller.ILS.L1_PUTS        19018      0.00%      0.00%
system.ruby.L2Cache_Controller.ILX.L1_GETS        18384      0.00%      0.00%
system.ruby.L2Cache_Controller.ILX.L1_GETX         6082      0.00%      0.00%
system.ruby.L2Cache_Controller.ILX.L1_PUTX      5626477      0.00%      0.00%
system.ruby.L2Cache_Controller.ILX.Fwd_GETX            2      0.00%      0.00%
system.ruby.L2Cache_Controller.ILX.Fwd_DMA          631      0.00%      0.00%
system.ruby.L2Cache_Controller.ILOX.L1_GETS        11750      0.00%      0.00%
system.ruby.L2Cache_Controller.ILOX.L1_GETX          449      0.00%      0.00%
system.ruby.L2Cache_Controller.ILOX.L1_PUTO          460      0.00%      0.00%
system.ruby.L2Cache_Controller.ILOX.Fwd_GETX           25      0.00%      0.00%
system.ruby.L2Cache_Controller.ILOSX.L1_GETS         5814      0.00%      0.00%
system.ruby.L2Cache_Controller.ILOSX.L1_GETX         5605      0.00%      0.00%
system.ruby.L2Cache_Controller.ILOSX.L1_PUTO          544      0.00%      0.00%
system.ruby.L2Cache_Controller.ILOSX.L1_PUTS_only        12726      0.00%      0.00%
system.ruby.L2Cache_Controller.ILOSX.L1_PUTS         3334      0.00%      0.00%
system.ruby.L2Cache_Controller.ILOSX.Fwd_GETX            7      0.00%      0.00%
system.ruby.L2Cache_Controller.S.L1_GETS      2917082      0.00%      0.00%
system.ruby.L2Cache_Controller.S.L1_GETX        36939      0.00%      0.00%
system.ruby.L2Cache_Controller.S.L2_Replacement      3167441      0.00%      0.00%
system.ruby.L2Cache_Controller.OLSX.L1_GETS         1724      0.00%      0.00%
system.ruby.L2Cache_Controller.OLSX.L1_GETX          104      0.00%      0.00%
system.ruby.L2Cache_Controller.OLSX.L1_PUTS_only          181      0.00%      0.00%
system.ruby.L2Cache_Controller.OLSX.L1_PUTS         1599      0.00%      0.00%
system.ruby.L2Cache_Controller.OLSX.Fwd_GETX            2      0.00%      0.00%
system.ruby.L2Cache_Controller.OLSX.L2_Replacement          247      0.00%      0.00%
system.ruby.L2Cache_Controller.SLS.L1_GETS       111157      0.00%      0.00%
system.ruby.L2Cache_Controller.SLS.L1_GETX        22644      0.00%      0.00%
system.ruby.L2Cache_Controller.SLS.L1_PUTS_only      2891087      0.00%      0.00%
system.ruby.L2Cache_Controller.SLS.L1_PUTS       106489      0.00%      0.00%
system.ruby.L2Cache_Controller.SLS.L2_Replacement        21849      0.00%      0.00%
system.ruby.L2Cache_Controller.M.L1_GETS      1083049      0.00%      0.00%
system.ruby.L2Cache_Controller.M.L1_GETX       525584      0.00%      0.00%
system.ruby.L2Cache_Controller.M.Fwd_GETX           28      0.00%      0.00%
system.ruby.L2Cache_Controller.M.Fwd_DMA          130      0.00%      0.00%
system.ruby.L2Cache_Controller.M.L2_Replacement      4015985      0.00%      0.00%
system.ruby.L2Cache_Controller.IFGX.Data_Exclusive           27      0.00%      0.00%
system.ruby.L2Cache_Controller.IFGXX.IntAck            7      0.00%      0.00%
system.ruby.L2Cache_Controller.IFGXX.All_Acks            7      0.00%      0.00%
system.ruby.L2Cache_Controller.IFGXX.Data_Exclusive            7      0.00%      0.00%
system.ruby.L2Cache_Controller.OLSF.IntAck            2      0.00%      0.00%
system.ruby.L2Cache_Controller.OLSF.All_Acks            2      0.00%      0.00%
system.ruby.L2Cache_Controller.ILOXW.L1_WBDIRTYDATA          460      0.00%      0.00%
system.ruby.L2Cache_Controller.ILOXW.Unblock        12726      0.00%      0.00%
system.ruby.L2Cache_Controller.ILOSXW.L1_WBDIRTYDATA          544      0.00%      0.00%
system.ruby.L2Cache_Controller.ILOSXW.Unblock         3334      0.00%      0.00%
system.ruby.L2Cache_Controller.SLSW.L1_PUTS            6      0.00%      0.00%
system.ruby.L2Cache_Controller.SLSW.Unblock       106489      0.00%      0.00%
system.ruby.L2Cache_Controller.ILSW.L1_WBCLEANDATA        19018      0.00%      0.00%
system.ruby.L2Cache_Controller.IW.L1_WBCLEANDATA      3235788      0.00%      0.00%
system.ruby.L2Cache_Controller.SW.L1_GETS            4      0.00%      0.00%
system.ruby.L2Cache_Controller.SW.Unblock      2891087      0.00%      0.00%
system.ruby.L2Cache_Controller.OXW.Unblock          181      0.00%      0.00%
system.ruby.L2Cache_Controller.OLSXW.Unblock         1599      0.00%      0.00%
system.ruby.L2Cache_Controller.ILXW.L1_WBDIRTYDATA      5626477      0.00%      0.00%
system.ruby.L2Cache_Controller.IFLS.L1_PUTS_only            1      0.00%      0.00%
system.ruby.L2Cache_Controller.IFLS.Unblock        15715      0.00%      0.00%
system.ruby.L2Cache_Controller.IFLOX.Unblock        11750      0.00%      0.00%
system.ruby.L2Cache_Controller.IFLOX.Exclusive_Unblock          104      0.00%      0.00%
system.ruby.L2Cache_Controller.IFLOXX.L1_GETS           56      0.00%      0.00%
system.ruby.L2Cache_Controller.IFLOXX.L1_GETX            6      0.00%      0.00%
system.ruby.L2Cache_Controller.IFLOXX.Unblock         6999      0.00%      0.00%
system.ruby.L2Cache_Controller.IFLOXX.Exclusive_Unblock        17916      0.00%      0.00%
system.ruby.L2Cache_Controller.IFLOSX.Unblock         5814      0.00%      0.00%
system.ruby.L2Cache_Controller.IFLXO.L1_GETS           47      0.00%      0.00%
system.ruby.L2Cache_Controller.IFLXO.L1_GETX            3      0.00%      0.00%
system.ruby.L2Cache_Controller.IFLXO.Exclusive_Unblock         5605      0.00%      0.00%
system.ruby.L2Cache_Controller.IGS.L1_GETS           24      0.00%      0.00%
system.ruby.L2Cache_Controller.IGS.Data       4113064      0.00%      0.00%
system.ruby.L2Cache_Controller.IGS.Unblock      4113064      0.00%      0.00%
system.ruby.L2Cache_Controller.IGM.Data       3116271      0.00%      0.00%
system.ruby.L2Cache_Controller.IGMLS.Data       902976      0.00%      0.00%
system.ruby.L2Cache_Controller.IGMO.All_Acks      4019247      0.00%      0.00%
system.ruby.L2Cache_Controller.IGMO.Exclusive_Unblock      4019247      0.00%      0.00%
system.ruby.L2Cache_Controller.MM.Exclusive_Unblock       525584      0.00%      0.00%
system.ruby.L2Cache_Controller.SS.L1_GETS            7      0.00%      0.00%
system.ruby.L2Cache_Controller.SS.Unblock      2917082      0.00%      0.00%
system.ruby.L2Cache_Controller.OO.L1_GETS            1      0.00%      0.00%
system.ruby.L2Cache_Controller.OO.Exclusive_Unblock      1083049      0.00%      0.00%
system.ruby.L2Cache_Controller.OLSXS.Unblock         1724      0.00%      0.00%
system.ruby.L2Cache_Controller.SLSS.L1_GETS            6      0.00%      0.00%
system.ruby.L2Cache_Controller.SLSS.L1_PUTS            2      0.00%      0.00%
system.ruby.L2Cache_Controller.SLSS.Unblock       111157      0.00%      0.00%
system.ruby.L2Cache_Controller.MI.L1_GETX            2      0.00%      0.00%
system.ruby.L2Cache_Controller.MI.Writeback_Ack      4015985      0.00%      0.00%
system.ruby.L2Cache_Controller.OLSI.Writeback_Ack          247      0.00%      0.00%
system.ruby.L2Cache_Controller.ILXD.DmaAck          631      0.00%      0.00%

---------- End Simulation Statistics   ----------
