
---------- Begin Simulation Statistics ----------
sim_seconds                                  1.869020                       # Number of seconds simulated
sim_ticks                                1869019929500                       # Number of ticks simulated
final_tick                               54097571270501                       # Number of ticks from beginning of simulation (restored from checkpoints and never reset)
sim_freq                                 1000000000000                       # Frequency of simulated ticks
host_inst_rate                                 106659                       # Simulator instruction rate (inst/s)
host_op_rate                                   158957                       # Simulator op (including micro ops) rate (op/s)
host_tick_rate                              274880222                       # Simulator tick rate (ticks/s)
host_mem_usage                                1812252                       # Number of bytes of host memory used
host_seconds                                  6799.40                       # Real time elapsed on the host
sim_insts                                   725213657                       # Number of instructions simulated
sim_ops                                    1080815103                       # Number of ops (including micro ops) simulated
system.voltage_domain.voltage                       1                       # Voltage in Volts
system.clk_domain.clock                          1000                       # Clock period in ticks
system.mem_ctrls.bytes_read::ruby.dir_cntrl0    380372928                       # Number of bytes read from this memory
system.mem_ctrls.bytes_read::total          380372928                       # Number of bytes read from this memory
system.mem_ctrls.bytes_written::ruby.dir_cntrl0    173511808                       # Number of bytes written to this memory
system.mem_ctrls.bytes_written::total       173511808                       # Number of bytes written to this memory
system.mem_ctrls.num_reads::ruby.dir_cntrl0      5943327                       # Number of read requests responded to by this memory
system.mem_ctrls.num_reads::total             5943327                       # Number of read requests responded to by this memory
system.mem_ctrls.num_writes::ruby.dir_cntrl0      2711122                       # Number of write requests responded to by this memory
system.mem_ctrls.num_writes::total            2711122                       # Number of write requests responded to by this memory
system.mem_ctrls.bw_read::ruby.dir_cntrl0    203514645                       # Total read bandwidth from this memory (bytes/s)
system.mem_ctrls.bw_read::total             203514645                       # Total read bandwidth from this memory (bytes/s)
system.mem_ctrls.bw_write::ruby.dir_cntrl0     92835718                       # Write bandwidth from this memory (bytes/s)
system.mem_ctrls.bw_write::total             92835718                       # Write bandwidth from this memory (bytes/s)
system.mem_ctrls.bw_total::ruby.dir_cntrl0    296350364                       # Total bandwidth to/from this memory (bytes/s)
system.mem_ctrls.bw_total::total            296350364                       # Total bandwidth to/from this memory (bytes/s)
system.mem_ctrls.readReqs                     5943327                       # Number of read requests accepted
system.mem_ctrls.writeReqs                    2711122                       # Number of write requests accepted
system.mem_ctrls.readBursts                   5943327                       # Number of DRAM read bursts, including those serviced by the write queue
system.mem_ctrls.writeBursts                  2711122                       # Number of DRAM write bursts, including those merged in the write queue
system.mem_ctrls.bytesReadDRAM              380187648                       # Total number of bytes read from DRAM
system.mem_ctrls.bytesReadWrQ                  185280                       # Total number of bytes read from write queue
system.mem_ctrls.bytesWritten               173512704                       # Total number of bytes written to DRAM
system.mem_ctrls.bytesReadSys               380372928                       # Total read bytes from the system interface side
system.mem_ctrls.bytesWrittenSys            173511808                       # Total written bytes from the system interface side
system.mem_ctrls.servicedByWrQ                   2895                       # Number of DRAM read bursts serviced by the write queue
system.mem_ctrls.mergedWrBursts                     0                       # Number of DRAM write bursts merged with an existing one
system.mem_ctrls.neitherReadNorWriteReqs            0                       # Number of requests that are neither read nor write
system.mem_ctrls.perBankRdBursts::0            374816                       # Per bank write bursts
system.mem_ctrls.perBankRdBursts::1            381677                       # Per bank write bursts
system.mem_ctrls.perBankRdBursts::2            368084                       # Per bank write bursts
system.mem_ctrls.perBankRdBursts::3            370345                       # Per bank write bursts
system.mem_ctrls.perBankRdBursts::4            371454                       # Per bank write bursts
system.mem_ctrls.perBankRdBursts::5            369669                       # Per bank write bursts
system.mem_ctrls.perBankRdBursts::6            379868                       # Per bank write bursts
system.mem_ctrls.perBankRdBursts::7            368924                       # Per bank write bursts
system.mem_ctrls.perBankRdBursts::8            370706                       # Per bank write bursts
system.mem_ctrls.perBankRdBursts::9            370157                       # Per bank write bursts
system.mem_ctrls.perBankRdBursts::10           368797                       # Per bank write bursts
system.mem_ctrls.perBankRdBursts::11           366196                       # Per bank write bursts
system.mem_ctrls.perBankRdBursts::12           367795                       # Per bank write bursts
system.mem_ctrls.perBankRdBursts::13           368314                       # Per bank write bursts
system.mem_ctrls.perBankRdBursts::14           371010                       # Per bank write bursts
system.mem_ctrls.perBankRdBursts::15           372620                       # Per bank write bursts
system.mem_ctrls.perBankWrBursts::0            169935                       # Per bank write bursts
system.mem_ctrls.perBankWrBursts::1            180672                       # Per bank write bursts
system.mem_ctrls.perBankWrBursts::2            169021                       # Per bank write bursts
system.mem_ctrls.perBankWrBursts::3            169397                       # Per bank write bursts
system.mem_ctrls.perBankWrBursts::4            167302                       # Per bank write bursts
system.mem_ctrls.perBankWrBursts::5            168330                       # Per bank write bursts
system.mem_ctrls.perBankWrBursts::6            174615                       # Per bank write bursts
system.mem_ctrls.perBankWrBursts::7            167752                       # Per bank write bursts
system.mem_ctrls.perBankWrBursts::8            170804                       # Per bank write bursts
system.mem_ctrls.perBankWrBursts::9            167912                       # Per bank write bursts
system.mem_ctrls.perBankWrBursts::10           167871                       # Per bank write bursts
system.mem_ctrls.perBankWrBursts::11           166122                       # Per bank write bursts
system.mem_ctrls.perBankWrBursts::12           168305                       # Per bank write bursts
system.mem_ctrls.perBankWrBursts::13           166747                       # Per bank write bursts
system.mem_ctrls.perBankWrBursts::14           168760                       # Per bank write bursts
system.mem_ctrls.perBankWrBursts::15           167591                       # Per bank write bursts
system.mem_ctrls.numRdRetry                         0                       # Number of times read queue was full causing retry
system.mem_ctrls.numWrRetry                         0                       # Number of times write queue was full causing retry
system.mem_ctrls.totGap                  1869019846500                       # Total gap between requests
system.mem_ctrls.readPktSize::0                     0                       # Read request sizes (log2)
system.mem_ctrls.readPktSize::1                     0                       # Read request sizes (log2)
system.mem_ctrls.readPktSize::2                     0                       # Read request sizes (log2)
system.mem_ctrls.readPktSize::3                     0                       # Read request sizes (log2)
system.mem_ctrls.readPktSize::4                     0                       # Read request sizes (log2)
system.mem_ctrls.readPktSize::5                     0                       # Read request sizes (log2)
system.mem_ctrls.readPktSize::6               5943327                       # Read request sizes (log2)
system.mem_ctrls.writePktSize::0                    0                       # Write request sizes (log2)
system.mem_ctrls.writePktSize::1                    0                       # Write request sizes (log2)
system.mem_ctrls.writePktSize::2                    0                       # Write request sizes (log2)
system.mem_ctrls.writePktSize::3                    0                       # Write request sizes (log2)
system.mem_ctrls.writePktSize::4                    0                       # Write request sizes (log2)
system.mem_ctrls.writePktSize::5                    0                       # Write request sizes (log2)
system.mem_ctrls.writePktSize::6              2711122                       # Write request sizes (log2)
system.mem_ctrls.rdQLenPdf::0                 5917422                       # What read queue length does an incoming req see
system.mem_ctrls.rdQLenPdf::1                   23001                       # What read queue length does an incoming req see
system.mem_ctrls.rdQLenPdf::2                       9                       # What read queue length does an incoming req see
system.mem_ctrls.rdQLenPdf::3                       0                       # What read queue length does an incoming req see
system.mem_ctrls.rdQLenPdf::4                       0                       # What read queue length does an incoming req see
system.mem_ctrls.rdQLenPdf::5                       0                       # What read queue length does an incoming req see
system.mem_ctrls.rdQLenPdf::6                       0                       # What read queue length does an incoming req see
system.mem_ctrls.rdQLenPdf::7                       0                       # What read queue length does an incoming req see
system.mem_ctrls.rdQLenPdf::8                       0                       # What read queue length does an incoming req see
system.mem_ctrls.rdQLenPdf::9                       0                       # What read queue length does an incoming req see
system.mem_ctrls.rdQLenPdf::10                      0                       # What read queue length does an incoming req see
system.mem_ctrls.rdQLenPdf::11                      0                       # What read queue length does an incoming req see
system.mem_ctrls.rdQLenPdf::12                      0                       # What read queue length does an incoming req see
system.mem_ctrls.rdQLenPdf::13                      0                       # What read queue length does an incoming req see
system.mem_ctrls.rdQLenPdf::14                      0                       # What read queue length does an incoming req see
system.mem_ctrls.rdQLenPdf::15                      0                       # What read queue length does an incoming req see
system.mem_ctrls.rdQLenPdf::16                      0                       # What read queue length does an incoming req see
system.mem_ctrls.rdQLenPdf::17                      0                       # What read queue length does an incoming req see
system.mem_ctrls.rdQLenPdf::18                      0                       # What read queue length does an incoming req see
system.mem_ctrls.rdQLenPdf::19                      0                       # What read queue length does an incoming req see
system.mem_ctrls.rdQLenPdf::20                      0                       # What read queue length does an incoming req see
system.mem_ctrls.rdQLenPdf::21                      0                       # What read queue length does an incoming req see
system.mem_ctrls.rdQLenPdf::22                      0                       # What read queue length does an incoming req see
system.mem_ctrls.rdQLenPdf::23                      0                       # What read queue length does an incoming req see
system.mem_ctrls.rdQLenPdf::24                      0                       # What read queue length does an incoming req see
system.mem_ctrls.rdQLenPdf::25                      0                       # What read queue length does an incoming req see
system.mem_ctrls.rdQLenPdf::26                      0                       # What read queue length does an incoming req see
system.mem_ctrls.rdQLenPdf::27                      0                       # What read queue length does an incoming req see
system.mem_ctrls.rdQLenPdf::28                      0                       # What read queue length does an incoming req see
system.mem_ctrls.rdQLenPdf::29                      0                       # What read queue length does an incoming req see
system.mem_ctrls.rdQLenPdf::30                      0                       # What read queue length does an incoming req see
system.mem_ctrls.rdQLenPdf::31                      0                       # What read queue length does an incoming req see
system.mem_ctrls.wrQLenPdf::0                       0                       # What write queue length does an incoming req see
system.mem_ctrls.wrQLenPdf::1                       0                       # What write queue length does an incoming req see
system.mem_ctrls.wrQLenPdf::2                       0                       # What write queue length does an incoming req see
system.mem_ctrls.wrQLenPdf::3                       0                       # What write queue length does an incoming req see
system.mem_ctrls.wrQLenPdf::4                       0                       # What write queue length does an incoming req see
system.mem_ctrls.wrQLenPdf::5                       0                       # What write queue length does an incoming req see
system.mem_ctrls.wrQLenPdf::6                       0                       # What write queue length does an incoming req see
system.mem_ctrls.wrQLenPdf::7                       0                       # What write queue length does an incoming req see
system.mem_ctrls.wrQLenPdf::8                       0                       # What write queue length does an incoming req see
system.mem_ctrls.wrQLenPdf::9                       0                       # What write queue length does an incoming req see
system.mem_ctrls.wrQLenPdf::10                      0                       # What write queue length does an incoming req see
system.mem_ctrls.wrQLenPdf::11                      0                       # What write queue length does an incoming req see
system.mem_ctrls.wrQLenPdf::12                      0                       # What write queue length does an incoming req see
system.mem_ctrls.wrQLenPdf::13                      0                       # What write queue length does an incoming req see
system.mem_ctrls.wrQLenPdf::14                      0                       # What write queue length does an incoming req see
system.mem_ctrls.wrQLenPdf::15                   2332                       # What write queue length does an incoming req see
system.mem_ctrls.wrQLenPdf::16                   2765                       # What write queue length does an incoming req see
system.mem_ctrls.wrQLenPdf::17                 166726                       # What write queue length does an incoming req see
system.mem_ctrls.wrQLenPdf::18                 169306                       # What write queue length does an incoming req see
system.mem_ctrls.wrQLenPdf::19                 169338                       # What write queue length does an incoming req see
system.mem_ctrls.wrQLenPdf::20                 169408                       # What write queue length does an incoming req see
system.mem_ctrls.wrQLenPdf::21                 169536                       # What write queue length does an incoming req see
system.mem_ctrls.wrQLenPdf::22                 169326                       # What write queue length does an incoming req see
system.mem_ctrls.wrQLenPdf::23                 169308                       # What write queue length does an incoming req see
system.mem_ctrls.wrQLenPdf::24                 169290                       # What write queue length does an incoming req see
system.mem_ctrls.wrQLenPdf::25                 169250                       # What write queue length does an incoming req see
system.mem_ctrls.wrQLenPdf::26                 169278                       # What write queue length does an incoming req see
system.mem_ctrls.wrQLenPdf::27                 169232                       # What write queue length does an incoming req see
system.mem_ctrls.wrQLenPdf::28                 169232                       # What write queue length does an incoming req see
system.mem_ctrls.wrQLenPdf::29                 169227                       # What write queue length does an incoming req see
system.mem_ctrls.wrQLenPdf::30                 169218                       # What write queue length does an incoming req see
system.mem_ctrls.wrQLenPdf::31                 169201                       # What write queue length does an incoming req see
system.mem_ctrls.wrQLenPdf::32                 169136                       # What write queue length does an incoming req see
system.mem_ctrls.wrQLenPdf::33                     13                       # What write queue length does an incoming req see
system.mem_ctrls.wrQLenPdf::34                      0                       # What write queue length does an incoming req see
system.mem_ctrls.wrQLenPdf::35                      0                       # What write queue length does an incoming req see
system.mem_ctrls.wrQLenPdf::36                      0                       # What write queue length does an incoming req see
system.mem_ctrls.wrQLenPdf::37                      0                       # What write queue length does an incoming req see
system.mem_ctrls.wrQLenPdf::38                      0                       # What write queue length does an incoming req see
system.mem_ctrls.wrQLenPdf::39                      0                       # What write queue length does an incoming req see
system.mem_ctrls.wrQLenPdf::40                      0                       # What write queue length does an incoming req see
system.mem_ctrls.wrQLenPdf::41                      0                       # What write queue length does an incoming req see
system.mem_ctrls.wrQLenPdf::42                      0                       # What write queue length does an incoming req see
system.mem_ctrls.wrQLenPdf::43                      0                       # What write queue length does an incoming req see
system.mem_ctrls.wrQLenPdf::44                      0                       # What write queue length does an incoming req see
system.mem_ctrls.wrQLenPdf::45                      0                       # What write queue length does an incoming req see
system.mem_ctrls.wrQLenPdf::46                      0                       # What write queue length does an incoming req see
system.mem_ctrls.wrQLenPdf::47                      0                       # What write queue length does an incoming req see
system.mem_ctrls.wrQLenPdf::48                      0                       # What write queue length does an incoming req see
system.mem_ctrls.wrQLenPdf::49                      0                       # What write queue length does an incoming req see
system.mem_ctrls.wrQLenPdf::50                      0                       # What write queue length does an incoming req see
system.mem_ctrls.wrQLenPdf::51                      0                       # What write queue length does an incoming req see
system.mem_ctrls.wrQLenPdf::52                      0                       # What write queue length does an incoming req see
system.mem_ctrls.wrQLenPdf::53                      0                       # What write queue length does an incoming req see
system.mem_ctrls.wrQLenPdf::54                      0                       # What write queue length does an incoming req see
system.mem_ctrls.wrQLenPdf::55                      0                       # What write queue length does an incoming req see
system.mem_ctrls.wrQLenPdf::56                      0                       # What write queue length does an incoming req see
system.mem_ctrls.wrQLenPdf::57                      0                       # What write queue length does an incoming req see
system.mem_ctrls.wrQLenPdf::58                      0                       # What write queue length does an incoming req see
system.mem_ctrls.wrQLenPdf::59                      0                       # What write queue length does an incoming req see
system.mem_ctrls.wrQLenPdf::60                      0                       # What write queue length does an incoming req see
system.mem_ctrls.wrQLenPdf::61                      0                       # What write queue length does an incoming req see
system.mem_ctrls.wrQLenPdf::62                      0                       # What write queue length does an incoming req see
system.mem_ctrls.wrQLenPdf::63                      0                       # What write queue length does an incoming req see
system.mem_ctrls.bytesPerActivate::samples      3749033                       # Bytes accessed per row activation
system.mem_ctrls.bytesPerActivate::mean    147.691563                       # Bytes accessed per row activation
system.mem_ctrls.bytesPerActivate::gmean    90.443145                       # Bytes accessed per row activation
system.mem_ctrls.bytesPerActivate::stdev   227.040986                       # Bytes accessed per row activation
system.mem_ctrls.bytesPerActivate::0-127      2996546     79.93%     79.93% # Bytes accessed per row activation
system.mem_ctrls.bytesPerActivate::128-255       268206      7.15%     87.08% # Bytes accessed per row activation
system.mem_ctrls.bytesPerActivate::256-383       101188      2.70%     89.78% # Bytes accessed per row activation
system.mem_ctrls.bytesPerActivate::384-511        72568      1.94%     91.72% # Bytes accessed per row activation
system.mem_ctrls.bytesPerActivate::512-639        59976      1.60%     93.32% # Bytes accessed per row activation
system.mem_ctrls.bytesPerActivate::640-767        43262      1.15%     94.47% # Bytes accessed per row activation
system.mem_ctrls.bytesPerActivate::768-895        33068      0.88%     95.35% # Bytes accessed per row activation
system.mem_ctrls.bytesPerActivate::896-1023        27622      0.74%     96.09% # Bytes accessed per row activation
system.mem_ctrls.bytesPerActivate::1024-1151       146597      3.91%    100.00% # Bytes accessed per row activation
system.mem_ctrls.bytesPerActivate::total      3749033                       # Bytes accessed per row activation
system.mem_ctrls.rdPerTurnAround::samples       169118                       # Reads before turning the bus around for writes
system.mem_ctrls.rdPerTurnAround::mean      35.216671                       # Reads before turning the bus around for writes
system.mem_ctrls.rdPerTurnAround::gmean     24.707014                       # Reads before turning the bus around for writes
system.mem_ctrls.rdPerTurnAround::stdev    210.562562                       # Reads before turning the bus around for writes
system.mem_ctrls.rdPerTurnAround::0-511        168577     99.68%     99.68% # Reads before turning the bus around for writes
system.mem_ctrls.rdPerTurnAround::512-1023          132      0.08%     99.76% # Reads before turning the bus around for writes
system.mem_ctrls.rdPerTurnAround::1024-1535           76      0.04%     99.80% # Reads before turning the bus around for writes
system.mem_ctrls.rdPerTurnAround::1536-2047           60      0.04%     99.84% # Reads before turning the bus around for writes
system.mem_ctrls.rdPerTurnAround::2048-2559           46      0.03%     99.87% # Reads before turning the bus around for writes
system.mem_ctrls.rdPerTurnAround::2560-3071           33      0.02%     99.89% # Reads before turning the bus around for writes
system.mem_ctrls.rdPerTurnAround::3072-3583           58      0.03%     99.92% # Reads before turning the bus around for writes
system.mem_ctrls.rdPerTurnAround::3584-4095           27      0.02%     99.94% # Reads before turning the bus around for writes
system.mem_ctrls.rdPerTurnAround::4096-4607           24      0.01%     99.95% # Reads before turning the bus around for writes
system.mem_ctrls.rdPerTurnAround::4608-5119           11      0.01%     99.96% # Reads before turning the bus around for writes
system.mem_ctrls.rdPerTurnAround::5120-5631           12      0.01%     99.96% # Reads before turning the bus around for writes
system.mem_ctrls.rdPerTurnAround::5632-6143           13      0.01%     99.97% # Reads before turning the bus around for writes
system.mem_ctrls.rdPerTurnAround::6144-6655            6      0.00%     99.97% # Reads before turning the bus around for writes
system.mem_ctrls.rdPerTurnAround::6656-7167            5      0.00%     99.98% # Reads before turning the bus around for writes
system.mem_ctrls.rdPerTurnAround::7168-7679           11      0.01%     99.98% # Reads before turning the bus around for writes
system.mem_ctrls.rdPerTurnAround::7680-8191            2      0.00%     99.99% # Reads before turning the bus around for writes
system.mem_ctrls.rdPerTurnAround::8192-8703            4      0.00%     99.99% # Reads before turning the bus around for writes
system.mem_ctrls.rdPerTurnAround::8704-9215            2      0.00%     99.99% # Reads before turning the bus around for writes
system.mem_ctrls.rdPerTurnAround::9216-9727            4      0.00%     99.99% # Reads before turning the bus around for writes
system.mem_ctrls.rdPerTurnAround::9728-10239            5      0.00%     99.99% # Reads before turning the bus around for writes
system.mem_ctrls.rdPerTurnAround::10240-10751            2      0.00%    100.00% # Reads before turning the bus around for writes
system.mem_ctrls.rdPerTurnAround::10752-11263            1      0.00%    100.00% # Reads before turning the bus around for writes
system.mem_ctrls.rdPerTurnAround::11776-12287            2      0.00%    100.00% # Reads before turning the bus around for writes
system.mem_ctrls.rdPerTurnAround::12288-12799            2      0.00%    100.00% # Reads before turning the bus around for writes
system.mem_ctrls.rdPerTurnAround::13312-13823            2      0.00%    100.00% # Reads before turning the bus around for writes
system.mem_ctrls.rdPerTurnAround::14848-15359            1      0.00%    100.00% # Reads before turning the bus around for writes
system.mem_ctrls.rdPerTurnAround::total        169118                       # Reads before turning the bus around for writes
system.mem_ctrls.wrPerTurnAround::samples       169118                       # Writes before turning the bus around for reads
system.mem_ctrls.wrPerTurnAround::mean      16.031032                       # Writes before turning the bus around for reads
system.mem_ctrls.wrPerTurnAround::gmean     16.029295                       # Writes before turning the bus around for reads
system.mem_ctrls.wrPerTurnAround::stdev      0.245168                       # Writes before turning the bus around for reads
system.mem_ctrls.wrPerTurnAround::16           166386     98.38%     98.38% # Writes before turning the bus around for reads
system.mem_ctrls.wrPerTurnAround::17              240      0.14%     98.53% # Writes before turning the bus around for reads
system.mem_ctrls.wrPerTurnAround::18             2468      1.46%     99.99% # Writes before turning the bus around for reads
system.mem_ctrls.wrPerTurnAround::19               24      0.01%    100.00% # Writes before turning the bus around for reads
system.mem_ctrls.wrPerTurnAround::total        169118                       # Writes before turning the bus around for reads
system.mem_ctrls.totQLat                 101964874846                       # Total ticks spent queuing
system.mem_ctrls.totMemAccLat            213347974846                       # Total ticks spent from burst creation until serviced by the DRAM
system.mem_ctrls.totBusLat                29702160000                       # Total ticks spent in databus transfers
system.mem_ctrls.avgQLat                     17164.56                       # Average queueing delay per DRAM burst
system.mem_ctrls.avgBusLat                    5000.00                       # Average bus latency per DRAM burst
system.mem_ctrls.avgMemAccLat                35914.56                       # Average memory access latency per DRAM burst
system.mem_ctrls.avgRdBW                       203.42                       # Average DRAM read bandwidth in MiByte/s
system.mem_ctrls.avgWrBW                        92.84                       # Average achieved write bandwidth in MiByte/s
system.mem_ctrls.avgRdBWSys                    203.51                       # Average system read bandwidth in MiByte/s
system.mem_ctrls.avgWrBWSys                     92.84                       # Average system write bandwidth in MiByte/s
system.mem_ctrls.peakBW                      12800.00                       # Theoretical peak bandwidth in MiByte/s
system.mem_ctrls.busUtil                         2.31                       # Data bus utilization in percentage
system.mem_ctrls.busUtilRead                     1.59                       # Data bus utilization in percentage for reads
system.mem_ctrls.busUtilWrite                    0.73                       # Data bus utilization in percentage for writes
system.mem_ctrls.avgRdQLen                       1.00                       # Average read queue length when enqueuing
system.mem_ctrls.avgWrQLen                      25.58                       # Average write queue length when enqueuing
system.mem_ctrls.readRowHits                  3764868                       # Number of row buffer hits during reads
system.mem_ctrls.writeRowHits                 1137667                       # Number of row buffer hits during writes
system.mem_ctrls.readRowHitRate                 63.38                       # Row buffer hit rate for reads
system.mem_ctrls.writeRowHitRate                41.96                       # Row buffer hit rate for writes
system.mem_ctrls.avgGap                     215960.58                       # Average gap between requests
system.mem_ctrls.pageHitRate                    56.67                       # Row buffer hit rate, read and write combined
system.mem_ctrls_0.actEnergy              14301433440                       # Energy for activate commands per rank (pJ)
system.mem_ctrls_0.preEnergy               7803361500                       # Energy for precharge commands per rank (pJ)
system.mem_ctrls_0.readEnergy             23341531200                       # Energy for read commands per rank (pJ)
system.mem_ctrls_0.writeEnergy             8858315520                       # Energy for write commands per rank (pJ)
system.mem_ctrls_0.refreshEnergy         122298508800                       # Energy for refresh commands per rank (pJ)
system.mem_ctrls_0.actBackEnergy         638504737785                       # Energy for active background per rank (pJ)
system.mem_ctrls_0.preBackEnergy         563370720750                       # Energy for precharge background per rank (pJ)
system.mem_ctrls_0.totalEnergy           1378478608995                       # Total energy per rank (pJ)
system.mem_ctrls_0.averagePower            736.194661                       # Core power per rank (mW)
system.mem_ctrls_0.memoryStateTime::IDLE 931084972001                       # Time in different power states
system.mem_ctrls_0.memoryStateTime::REF   62410660000                       # Time in different power states
system.mem_ctrls_0.memoryStateTime::PRE_PDN            0                       # Time in different power states
system.mem_ctrls_0.memoryStateTime::ACT  875524528499                       # Time in different power states
system.mem_ctrls_0.memoryStateTime::ACT_PDN            0                       # Time in different power states
system.mem_ctrls_1.actEnergy              14071057560                       # Energy for activate commands per rank (pJ)
system.mem_ctrls_1.preEnergy               7677660375                       # Energy for precharge commands per rank (pJ)
system.mem_ctrls_1.readEnergy             23113506000                       # Energy for read commands per rank (pJ)
system.mem_ctrls_1.writeEnergy             8709845760                       # Energy for write commands per rank (pJ)
system.mem_ctrls_1.refreshEnergy         122298508800                       # Energy for refresh commands per rank (pJ)
system.mem_ctrls_1.actBackEnergy         637832232405                       # Energy for active background per rank (pJ)
system.mem_ctrls_1.preBackEnergy         563960637750                       # Energy for precharge background per rank (pJ)
system.mem_ctrls_1.totalEnergy           1377663448650                       # Total energy per rank (pJ)
system.mem_ctrls_1.averagePower            735.759314                       # Core power per rank (mW)
system.mem_ctrls_1.memoryStateTime::IDLE 932007503004                       # Time in different power states
system.mem_ctrls_1.memoryStateTime::REF   62410660000                       # Time in different power states
system.mem_ctrls_1.memoryStateTime::PRE_PDN            0                       # Time in different power states
system.mem_ctrls_1.memoryStateTime::ACT  874601073246                       # Time in different power states
system.mem_ctrls_1.memoryStateTime::ACT_PDN            0                       # Time in different power states
system.cpu_voltage_domain.voltage                   1                       # Voltage in Volts
system.cpu_clk_domain.clock                       500                       # Clock period in ticks
system.cpu0.apic_clk_domain.clock                8000                       # Clock period in ticks
system.cpu0.numCycles                      3732802027                       # number of cpu cycles simulated
system.cpu0.numWorkItemsStarted                     0                       # number of work items this cpu started
system.cpu0.numWorkItemsCompleted                   0                       # number of work items this cpu completed
system.cpu0.kern.inst.arm                           0                       # number of arm instructions executed
system.cpu0.kern.inst.quiesce                       0                       # number of quiesce instructions executed
system.cpu0.committedInsts                    1480688                       # Number of instructions committed
system.cpu0.committedOps                      3232602                       # Number of ops (including micro ops) committed
system.cpu0.num_int_alu_accesses              3162940                       # Number of integer alu accesses
system.cpu0.num_fp_alu_accesses                     0                       # Number of float alu accesses
system.cpu0.num_func_calls                      95866                       # number of times a function call or return occured
system.cpu0.num_conditional_control_insts       212644                       # number of instructions that are conditional controls
system.cpu0.num_int_insts                     3162940                       # number of integer instructions
system.cpu0.num_fp_insts                            0                       # number of float instructions
system.cpu0.num_int_register_reads            6427640                       # number of times the integer registers were read
system.cpu0.num_int_register_writes           2621006                       # number of times the integer registers were written
system.cpu0.num_fp_register_reads                   0                       # number of times the floating registers were read
system.cpu0.num_fp_register_writes                  0                       # number of times the floating registers were written
system.cpu0.num_cc_register_reads             1779239                       # number of times the CC registers were read
system.cpu0.num_cc_register_writes             965349                       # number of times the CC registers were written
system.cpu0.num_mem_refs                       763069                       # number of memory refs
system.cpu0.num_load_insts                     471047                       # Number of load instructions
system.cpu0.num_store_insts                    292022                       # Number of store instructions
system.cpu0.num_idle_cycles              3722764369.744387                       # Number of idle cycles
system.cpu0.num_busy_cycles              10037657.255613                       # Number of busy cycles
system.cpu0.not_idle_fraction                0.002689                       # Percentage of non-idle cycles
system.cpu0.idle_fraction                    0.997311                       # Percentage of idle cycles
system.cpu0.Branches                           337617                       # Number of branches fetched
system.cpu0.op_class::No_OpClass                56020      1.73%      1.73% # Class of executed instruction
system.cpu0.op_class::IntAlu                  2388713     73.89%     75.63% # Class of executed instruction
system.cpu0.op_class::IntMult                    6092      0.19%     75.82% # Class of executed instruction
system.cpu0.op_class::IntDiv                    18711      0.58%     76.39% # Class of executed instruction
system.cpu0.op_class::FloatAdd                      0      0.00%     76.39% # Class of executed instruction
system.cpu0.op_class::FloatCmp                      0      0.00%     76.39% # Class of executed instruction
system.cpu0.op_class::FloatCvt                      0      0.00%     76.39% # Class of executed instruction
system.cpu0.op_class::FloatMult                     0      0.00%     76.39% # Class of executed instruction
system.cpu0.op_class::FloatDiv                      0      0.00%     76.39% # Class of executed instruction
system.cpu0.op_class::FloatSqrt                     0      0.00%     76.39% # Class of executed instruction
system.cpu0.op_class::SimdAdd                       0      0.00%     76.39% # Class of executed instruction
system.cpu0.op_class::SimdAddAcc                    0      0.00%     76.39% # Class of executed instruction
system.cpu0.op_class::SimdAlu                       0      0.00%     76.39% # Class of executed instruction
system.cpu0.op_class::SimdCmp                       0      0.00%     76.39% # Class of executed instruction
system.cpu0.op_class::SimdCvt                       0      0.00%     76.39% # Class of executed instruction
system.cpu0.op_class::SimdMisc                      0      0.00%     76.39% # Class of executed instruction
system.cpu0.op_class::SimdMult                      0      0.00%     76.39% # Class of executed instruction
system.cpu0.op_class::SimdMultAcc                   0      0.00%     76.39% # Class of executed instruction
system.cpu0.op_class::SimdShift                     0      0.00%     76.39% # Class of executed instruction
system.cpu0.op_class::SimdShiftAcc                  0      0.00%     76.39% # Class of executed instruction
system.cpu0.op_class::SimdSqrt                      0      0.00%     76.39% # Class of executed instruction
system.cpu0.op_class::SimdFloatAdd                  0      0.00%     76.39% # Class of executed instruction
system.cpu0.op_class::SimdFloatAlu                  0      0.00%     76.39% # Class of executed instruction
system.cpu0.op_class::SimdFloatCmp                  0      0.00%     76.39% # Class of executed instruction
system.cpu0.op_class::SimdFloatCvt                  0      0.00%     76.39% # Class of executed instruction
system.cpu0.op_class::SimdFloatDiv                  0      0.00%     76.39% # Class of executed instruction
system.cpu0.op_class::SimdFloatMisc                 0      0.00%     76.39% # Class of executed instruction
system.cpu0.op_class::SimdFloatMult                 0      0.00%     76.39% # Class of executed instruction
system.cpu0.op_class::SimdFloatMultAcc              0      0.00%     76.39% # Class of executed instruction
system.cpu0.op_class::SimdFloatSqrt                 0      0.00%     76.39% # Class of executed instruction
system.cpu0.op_class::MemRead                  471047     14.57%     90.97% # Class of executed instruction
system.cpu0.op_class::MemWrite                 292022      9.03%    100.00% # Class of executed instruction
system.cpu0.op_class::IprAccess                     0      0.00%    100.00% # Class of executed instruction
system.cpu0.op_class::InstPrefetch                  0      0.00%    100.00% # Class of executed instruction
system.cpu0.op_class::total                   3232605                       # Class of executed instruction
system.cpu1.apic_clk_domain.clock                8000                       # Clock period in ticks
system.cpu1.numCycles                      3736628255                       # number of cpu cycles simulated
system.cpu1.numWorkItemsStarted                     0                       # number of work items this cpu started
system.cpu1.numWorkItemsCompleted                   0                       # number of work items this cpu completed
system.cpu1.kern.inst.arm                           0                       # number of arm instructions executed
system.cpu1.kern.inst.quiesce                       0                       # number of quiesce instructions executed
system.cpu1.committedInsts                    3904524                       # Number of instructions committed
system.cpu1.committedOps                      7822600                       # Number of ops (including micro ops) committed
system.cpu1.num_int_alu_accesses              7681314                       # Number of integer alu accesses
system.cpu1.num_fp_alu_accesses                  1778                       # Number of float alu accesses
system.cpu1.num_func_calls                     204166                       # number of times a function call or return occured
system.cpu1.num_conditional_control_insts       656934                       # number of instructions that are conditional controls
system.cpu1.num_int_insts                     7681314                       # number of integer instructions
system.cpu1.num_fp_insts                         1778                       # number of float instructions
system.cpu1.num_int_register_reads           15291991                       # number of times the integer registers were read
system.cpu1.num_int_register_writes           6253248                       # number of times the integer registers were written
system.cpu1.num_fp_register_reads                2988                       # number of times the floating registers were read
system.cpu1.num_fp_register_writes               1416                       # number of times the floating registers were written
system.cpu1.num_cc_register_reads             4924875                       # number of times the CC registers were read
system.cpu1.num_cc_register_writes            2653935                       # number of times the CC registers were written
system.cpu1.num_mem_refs                      1772275                       # number of memory refs
system.cpu1.num_load_insts                    1149529                       # Number of load instructions
system.cpu1.num_store_insts                    622746                       # Number of store instructions
system.cpu1.num_idle_cycles              3715075095.242676                       # Number of idle cycles
system.cpu1.num_busy_cycles              21553159.757324                       # Number of busy cycles
system.cpu1.not_idle_fraction                0.005768                       # Percentage of non-idle cycles
system.cpu1.idle_fraction                    0.994232                       # Percentage of idle cycles
system.cpu1.Branches                           898343                       # Number of branches fetched
system.cpu1.op_class::No_OpClass                57928      0.74%      0.74% # Class of executed instruction
system.cpu1.op_class::IntAlu                  5963876     76.24%     76.98% # Class of executed instruction
system.cpu1.op_class::IntMult                    8056      0.10%     77.08% # Class of executed instruction
system.cpu1.op_class::IntDiv                    19211      0.25%     77.33% # Class of executed instruction
system.cpu1.op_class::FloatAdd                   1344      0.02%     77.34% # Class of executed instruction
system.cpu1.op_class::FloatCmp                      0      0.00%     77.34% # Class of executed instruction
system.cpu1.op_class::FloatCvt                      0      0.00%     77.34% # Class of executed instruction
system.cpu1.op_class::FloatMult                     0      0.00%     77.34% # Class of executed instruction
system.cpu1.op_class::FloatDiv                      0      0.00%     77.34% # Class of executed instruction
system.cpu1.op_class::FloatSqrt                     0      0.00%     77.34% # Class of executed instruction
system.cpu1.op_class::SimdAdd                       0      0.00%     77.34% # Class of executed instruction
system.cpu1.op_class::SimdAddAcc                    0      0.00%     77.34% # Class of executed instruction
system.cpu1.op_class::SimdAlu                       0      0.00%     77.34% # Class of executed instruction
system.cpu1.op_class::SimdCmp                       0      0.00%     77.34% # Class of executed instruction
system.cpu1.op_class::SimdCvt                       0      0.00%     77.34% # Class of executed instruction
system.cpu1.op_class::SimdMisc                      0      0.00%     77.34% # Class of executed instruction
system.cpu1.op_class::SimdMult                      0      0.00%     77.34% # Class of executed instruction
system.cpu1.op_class::SimdMultAcc                   0      0.00%     77.34% # Class of executed instruction
system.cpu1.op_class::SimdShift                     0      0.00%     77.34% # Class of executed instruction
system.cpu1.op_class::SimdShiftAcc                  0      0.00%     77.34% # Class of executed instruction
system.cpu1.op_class::SimdSqrt                      0      0.00%     77.34% # Class of executed instruction
system.cpu1.op_class::SimdFloatAdd                  0      0.00%     77.34% # Class of executed instruction
system.cpu1.op_class::SimdFloatAlu                  0      0.00%     77.34% # Class of executed instruction
system.cpu1.op_class::SimdFloatCmp                  0      0.00%     77.34% # Class of executed instruction
system.cpu1.op_class::SimdFloatCvt                  0      0.00%     77.34% # Class of executed instruction
system.cpu1.op_class::SimdFloatDiv                  0      0.00%     77.34% # Class of executed instruction
system.cpu1.op_class::SimdFloatMisc                 0      0.00%     77.34% # Class of executed instruction
system.cpu1.op_class::SimdFloatMult                 0      0.00%     77.34% # Class of executed instruction
system.cpu1.op_class::SimdFloatMultAcc              0      0.00%     77.34% # Class of executed instruction
system.cpu1.op_class::SimdFloatSqrt                 0      0.00%     77.34% # Class of executed instruction
system.cpu1.op_class::MemRead                 1149529     14.69%     92.04% # Class of executed instruction
system.cpu1.op_class::MemWrite                 622746      7.96%    100.00% # Class of executed instruction
system.cpu1.op_class::IprAccess                     0      0.00%    100.00% # Class of executed instruction
system.cpu1.op_class::InstPrefetch                  0      0.00%    100.00% # Class of executed instruction
system.cpu1.op_class::total                   7822690                       # Class of executed instruction
system.cpu2.apic_clk_domain.clock                8000                       # Clock period in ticks
system.cpu2.numCycles                      3742585275                       # number of cpu cycles simulated
system.cpu2.numWorkItemsStarted                     0                       # number of work items this cpu started
system.cpu2.numWorkItemsCompleted                   0                       # number of work items this cpu completed
system.cpu2.kern.inst.arm                           0                       # number of arm instructions executed
system.cpu2.kern.inst.quiesce                       0                       # number of quiesce instructions executed
system.cpu2.committedInsts                    1363487                       # Number of instructions committed
system.cpu2.committedOps                      2938651                       # Number of ops (including micro ops) committed
system.cpu2.num_int_alu_accesses              2873163                       # Number of integer alu accesses
system.cpu2.num_fp_alu_accesses                    39                       # Number of float alu accesses
system.cpu2.num_func_calls                      80368                       # number of times a function call or return occured
system.cpu2.num_conditional_control_insts       207578                       # number of instructions that are conditional controls
system.cpu2.num_int_insts                     2873163                       # number of integer instructions
system.cpu2.num_fp_insts                           39                       # number of float instructions
system.cpu2.num_int_register_reads            5845144                       # number of times the integer registers were read
system.cpu2.num_int_register_writes           2384078                       # number of times the integer registers were written
system.cpu2.num_fp_register_reads                  63                       # number of times the floating registers were read
system.cpu2.num_fp_register_writes                 31                       # number of times the floating registers were written
system.cpu2.num_cc_register_reads             1661685                       # number of times the CC registers were read
system.cpu2.num_cc_register_writes             869301                       # number of times the CC registers were written
system.cpu2.num_mem_refs                       700032                       # number of memory refs
system.cpu2.num_load_insts                     434316                       # Number of load instructions
system.cpu2.num_store_insts                    265716                       # Number of store instructions
system.cpu2.num_idle_cycles              3734153345.317355                       # Number of idle cycles
system.cpu2.num_busy_cycles              8431929.682645                       # Number of busy cycles
system.cpu2.not_idle_fraction                0.002253                       # Percentage of non-idle cycles
system.cpu2.idle_fraction                    0.997747                       # Percentage of idle cycles
system.cpu2.Branches                           314402                       # Number of branches fetched
system.cpu2.op_class::No_OpClass                55989      1.91%      1.91% # Class of executed instruction
system.cpu2.op_class::IntAlu                  2157007     73.40%     75.31% # Class of executed instruction
system.cpu2.op_class::IntMult                    5729      0.19%     75.50% # Class of executed instruction
system.cpu2.op_class::IntDiv                    19886      0.68%     76.18% # Class of executed instruction
system.cpu2.op_class::FloatAdd                     30      0.00%     76.18% # Class of executed instruction
system.cpu2.op_class::FloatCmp                      0      0.00%     76.18% # Class of executed instruction
system.cpu2.op_class::FloatCvt                      0      0.00%     76.18% # Class of executed instruction
system.cpu2.op_class::FloatMult                     0      0.00%     76.18% # Class of executed instruction
system.cpu2.op_class::FloatDiv                      0      0.00%     76.18% # Class of executed instruction
system.cpu2.op_class::FloatSqrt                     0      0.00%     76.18% # Class of executed instruction
system.cpu2.op_class::SimdAdd                       0      0.00%     76.18% # Class of executed instruction
system.cpu2.op_class::SimdAddAcc                    0      0.00%     76.18% # Class of executed instruction
system.cpu2.op_class::SimdAlu                       0      0.00%     76.18% # Class of executed instruction
system.cpu2.op_class::SimdCmp                       0      0.00%     76.18% # Class of executed instruction
system.cpu2.op_class::SimdCvt                       0      0.00%     76.18% # Class of executed instruction
system.cpu2.op_class::SimdMisc                      0      0.00%     76.18% # Class of executed instruction
system.cpu2.op_class::SimdMult                      0      0.00%     76.18% # Class of executed instruction
system.cpu2.op_class::SimdMultAcc                   0      0.00%     76.18% # Class of executed instruction
system.cpu2.op_class::SimdShift                     0      0.00%     76.18% # Class of executed instruction
system.cpu2.op_class::SimdShiftAcc                  0      0.00%     76.18% # Class of executed instruction
system.cpu2.op_class::SimdSqrt                      0      0.00%     76.18% # Class of executed instruction
system.cpu2.op_class::SimdFloatAdd                  0      0.00%     76.18% # Class of executed instruction
system.cpu2.op_class::SimdFloatAlu                  0      0.00%     76.18% # Class of executed instruction
system.cpu2.op_class::SimdFloatCmp                  0      0.00%     76.18% # Class of executed instruction
system.cpu2.op_class::SimdFloatCvt                  0      0.00%     76.18% # Class of executed instruction
system.cpu2.op_class::SimdFloatDiv                  0      0.00%     76.18% # Class of executed instruction
system.cpu2.op_class::SimdFloatMisc                 0      0.00%     76.18% # Class of executed instruction
system.cpu2.op_class::SimdFloatMult                 0      0.00%     76.18% # Class of executed instruction
system.cpu2.op_class::SimdFloatMultAcc              0      0.00%     76.18% # Class of executed instruction
system.cpu2.op_class::SimdFloatSqrt                 0      0.00%     76.18% # Class of executed instruction
system.cpu2.op_class::MemRead                  434316     14.78%     90.96% # Class of executed instruction
system.cpu2.op_class::MemWrite                 265716      9.04%    100.00% # Class of executed instruction
system.cpu2.op_class::IprAccess                     0      0.00%    100.00% # Class of executed instruction
system.cpu2.op_class::InstPrefetch                  0      0.00%    100.00% # Class of executed instruction
system.cpu2.op_class::total                   2938673                       # Class of executed instruction
system.cpu3.apic_clk_domain.clock                8000                       # Clock period in ticks
system.cpu3.numCycles                      3739980176                       # number of cpu cycles simulated
system.cpu3.numWorkItemsStarted                     0                       # number of work items this cpu started
system.cpu3.numWorkItemsCompleted                   0                       # number of work items this cpu completed
system.cpu3.kern.inst.arm                           0                       # number of arm instructions executed
system.cpu3.kern.inst.quiesce                       0                       # number of quiesce instructions executed
system.cpu3.committedInsts                  717123025                       # Number of instructions committed
system.cpu3.committedOps                   1064352458                       # Number of ops (including micro ops) committed
system.cpu3.num_int_alu_accesses            463862411                       # Number of integer alu accesses
system.cpu3.num_fp_alu_accesses             708837843                       # Number of float alu accesses
system.cpu3.num_func_calls                     898489                       # number of times a function call or return occured
system.cpu3.num_conditional_control_insts     10829607                       # number of instructions that are conditional controls
system.cpu3.num_int_insts                   463862411                       # number of integer instructions
system.cpu3.num_fp_insts                    708837843                       # number of float instructions
system.cpu3.num_int_register_reads          971817277                       # number of times the integer registers were read
system.cpu3.num_int_register_writes         343750156                       # number of times the integer registers were written
system.cpu3.num_fp_register_reads          1593836311                       # number of times the floating registers were read
system.cpu3.num_fp_register_writes          654311799                       # number of times the floating registers were written
system.cpu3.num_cc_register_reads           111626941                       # number of times the CC registers were read
system.cpu3.num_cc_register_writes          201619208                       # number of times the CC registers were written
system.cpu3.num_mem_refs                    129337612                       # number of memory refs
system.cpu3.num_load_insts                   75434498                       # Number of load instructions
system.cpu3.num_store_insts                  53903114                       # Number of store instructions
system.cpu3.num_idle_cycles              11667680.238185                       # Number of idle cycles
system.cpu3.num_busy_cycles              3728312495.761815                       # Number of busy cycles
system.cpu3.not_idle_fraction                0.996880                       # Percentage of non-idle cycles
system.cpu3.idle_fraction                    0.003120                       # Percentage of idle cycles
system.cpu3.Branches                         12019012                       # Number of branches fetched
system.cpu3.op_class::No_OpClass               313767      0.03%      0.03% # Class of executed instruction
system.cpu3.op_class::IntAlu                431310546     40.52%     40.55% # Class of executed instruction
system.cpu3.op_class::IntMult                   88008      0.01%     40.56% # Class of executed instruction
system.cpu3.op_class::IntDiv                     2252      0.00%     40.56% # Class of executed instruction
system.cpu3.op_class::FloatAdd              503316796     47.29%     87.85% # Class of executed instruction
system.cpu3.op_class::FloatCmp                      0      0.00%     87.85% # Class of executed instruction
system.cpu3.op_class::FloatCvt                      0      0.00%     87.85% # Class of executed instruction
system.cpu3.op_class::FloatMult                     0      0.00%     87.85% # Class of executed instruction
system.cpu3.op_class::FloatDiv                      0      0.00%     87.85% # Class of executed instruction
system.cpu3.op_class::FloatSqrt                     0      0.00%     87.85% # Class of executed instruction
system.cpu3.op_class::SimdAdd                       0      0.00%     87.85% # Class of executed instruction
system.cpu3.op_class::SimdAddAcc                    0      0.00%     87.85% # Class of executed instruction
system.cpu3.op_class::SimdAlu                       0      0.00%     87.85% # Class of executed instruction
system.cpu3.op_class::SimdCmp                       0      0.00%     87.85% # Class of executed instruction
system.cpu3.op_class::SimdCvt                       0      0.00%     87.85% # Class of executed instruction
system.cpu3.op_class::SimdMisc                      0      0.00%     87.85% # Class of executed instruction
system.cpu3.op_class::SimdMult                      0      0.00%     87.85% # Class of executed instruction
system.cpu3.op_class::SimdMultAcc                   0      0.00%     87.85% # Class of executed instruction
system.cpu3.op_class::SimdShift                     0      0.00%     87.85% # Class of executed instruction
system.cpu3.op_class::SimdShiftAcc                  0      0.00%     87.85% # Class of executed instruction
system.cpu3.op_class::SimdSqrt                      0      0.00%     87.85% # Class of executed instruction
system.cpu3.op_class::SimdFloatAdd                  0      0.00%     87.85% # Class of executed instruction
system.cpu3.op_class::SimdFloatAlu                  0      0.00%     87.85% # Class of executed instruction
system.cpu3.op_class::SimdFloatCmp                  0      0.00%     87.85% # Class of executed instruction
system.cpu3.op_class::SimdFloatCvt                  0      0.00%     87.85% # Class of executed instruction
system.cpu3.op_class::SimdFloatDiv                  0      0.00%     87.85% # Class of executed instruction
system.cpu3.op_class::SimdFloatMisc                 0      0.00%     87.85% # Class of executed instruction
system.cpu3.op_class::SimdFloatMult                 0      0.00%     87.85% # Class of executed instruction
system.cpu3.op_class::SimdFloatMultAcc              0      0.00%     87.85% # Class of executed instruction
system.cpu3.op_class::SimdFloatSqrt                 0      0.00%     87.85% # Class of executed instruction
system.cpu3.op_class::MemRead                75434498      7.09%     94.94% # Class of executed instruction
system.cpu3.op_class::MemWrite               53903114      5.06%    100.00% # Class of executed instruction
system.cpu3.op_class::IprAccess                     0      0.00%    100.00% # Class of executed instruction
system.cpu3.op_class::InstPrefetch                  0      0.00%    100.00% # Class of executed instruction
system.cpu3.op_class::total                1064368981                       # Class of executed instruction
system.iobus.trans_dist::ReadReq                   83                       # Transaction distribution
system.iobus.trans_dist::ReadResp                  83                       # Transaction distribution
system.iobus.trans_dist::WriteReq                1934                       # Transaction distribution
system.iobus.trans_dist::WriteResp               1934                       # Transaction distribution
system.iobus.trans_dist::MessageReq                13                       # Transaction distribution
system.iobus.trans_dist::MessageResp               13                       # Transaction distribution
system.iobus.pkt_count_system.pc.south_bridge.io_apic.int_master::system.ruby.l1_cntrl0.sequencer.pio-slave-port            2                       # Packet count per connected master and slave (bytes)
system.iobus.pkt_count_system.pc.south_bridge.io_apic.int_master::system.ruby.l1_cntrl1.sequencer.pio-slave-port            4                       # Packet count per connected master and slave (bytes)
system.iobus.pkt_count_system.pc.south_bridge.io_apic.int_master::system.ruby.l1_cntrl2.sequencer.pio-slave-port            2                       # Packet count per connected master and slave (bytes)
system.iobus.pkt_count_system.pc.south_bridge.io_apic.int_master::system.ruby.l1_cntrl3.sequencer.pio-slave-port            2                       # Packet count per connected master and slave (bytes)
system.iobus.pkt_count_system.pc.south_bridge.io_apic.int_master::total           10                       # Packet count per connected master and slave (bytes)
system.iobus.pkt_count_system.ruby.l1_cntrl0.sequencer.mem-master-port::system.pc.south_bridge.io_apic.pio            6                       # Packet count per connected master and slave (bytes)
system.iobus.pkt_count_system.ruby.l1_cntrl0.sequencer.mem-master-port::system.pc.com_1.pio           22                       # Packet count per connected master and slave (bytes)
system.iobus.pkt_count_system.ruby.l1_cntrl0.sequencer.mem-master-port::system.ruby.l1_cntrl0.sequencer.pio-slave-port          946                       # Packet count per connected master and slave (bytes)
system.iobus.pkt_count_system.ruby.l1_cntrl0.sequencer.mem-master-port::system.ruby.l1_cntrl1.sequencer.pio-slave-port            2                       # Packet count per connected master and slave (bytes)
system.iobus.pkt_count_system.ruby.l1_cntrl0.sequencer.mem-master-port::total          976                       # Packet count per connected master and slave (bytes)
system.iobus.pkt_count_system.ruby.l1_cntrl1.sequencer.mem-master-port::system.pc.south_bridge.io_apic.pio           14                       # Packet count per connected master and slave (bytes)
system.iobus.pkt_count_system.ruby.l1_cntrl1.sequencer.mem-master-port::system.pc.com_1.pio          162                       # Packet count per connected master and slave (bytes)
system.iobus.pkt_count_system.ruby.l1_cntrl1.sequencer.mem-master-port::system.ruby.l1_cntrl0.sequencer.pio-slave-port            2                       # Packet count per connected master and slave (bytes)
system.iobus.pkt_count_system.ruby.l1_cntrl1.sequencer.mem-master-port::system.ruby.l1_cntrl1.sequencer.pio-slave-port          962                       # Packet count per connected master and slave (bytes)
system.iobus.pkt_count_system.ruby.l1_cntrl1.sequencer.mem-master-port::system.ruby.l1_cntrl2.sequencer.pio-slave-port            2                       # Packet count per connected master and slave (bytes)
system.iobus.pkt_count_system.ruby.l1_cntrl1.sequencer.mem-master-port::system.ruby.l1_cntrl3.sequencer.pio-slave-port            2                       # Packet count per connected master and slave (bytes)
system.iobus.pkt_count_system.ruby.l1_cntrl1.sequencer.mem-master-port::total         1144                       # Packet count per connected master and slave (bytes)
system.iobus.pkt_count_system.ruby.l1_cntrl2.sequencer.mem-master-port::system.pc.south_bridge.io_apic.pio            8                       # Packet count per connected master and slave (bytes)
system.iobus.pkt_count_system.ruby.l1_cntrl2.sequencer.mem-master-port::system.ruby.l1_cntrl2.sequencer.pio-slave-port          948                       # Packet count per connected master and slave (bytes)
system.iobus.pkt_count_system.ruby.l1_cntrl2.sequencer.mem-master-port::system.ruby.l1_cntrl3.sequencer.pio-slave-port            2                       # Packet count per connected master and slave (bytes)
system.iobus.pkt_count_system.ruby.l1_cntrl2.sequencer.mem-master-port::total          958                       # Packet count per connected master and slave (bytes)
system.iobus.pkt_count_system.ruby.l1_cntrl3.sequencer.mem-master-port::system.pc.south_bridge.io_apic.pio            8                       # Packet count per connected master and slave (bytes)
system.iobus.pkt_count_system.ruby.l1_cntrl3.sequencer.mem-master-port::system.ruby.l1_cntrl0.sequencer.pio-slave-port            2                       # Packet count per connected master and slave (bytes)
system.iobus.pkt_count_system.ruby.l1_cntrl3.sequencer.mem-master-port::system.ruby.l1_cntrl1.sequencer.pio-slave-port            2                       # Packet count per connected master and slave (bytes)
system.iobus.pkt_count_system.ruby.l1_cntrl3.sequencer.mem-master-port::system.ruby.l1_cntrl2.sequencer.pio-slave-port            2                       # Packet count per connected master and slave (bytes)
system.iobus.pkt_count_system.ruby.l1_cntrl3.sequencer.mem-master-port::system.ruby.l1_cntrl3.sequencer.pio-slave-port          958                       # Packet count per connected master and slave (bytes)
system.iobus.pkt_count_system.ruby.l1_cntrl3.sequencer.mem-master-port::total          972                       # Packet count per connected master and slave (bytes)
system.iobus.pkt_count::total                    4060                       # Packet count per connected master and slave (bytes)
system.iobus.pkt_size_system.pc.south_bridge.io_apic.int_master::system.ruby.l1_cntrl0.sequencer.pio-slave-port            4                       # Cumulative packet size per connected master and slave (bytes)
system.iobus.pkt_size_system.pc.south_bridge.io_apic.int_master::system.ruby.l1_cntrl1.sequencer.pio-slave-port            8                       # Cumulative packet size per connected master and slave (bytes)
system.iobus.pkt_size_system.pc.south_bridge.io_apic.int_master::system.ruby.l1_cntrl2.sequencer.pio-slave-port            4                       # Cumulative packet size per connected master and slave (bytes)
system.iobus.pkt_size_system.pc.south_bridge.io_apic.int_master::system.ruby.l1_cntrl3.sequencer.pio-slave-port            4                       # Cumulative packet size per connected master and slave (bytes)
system.iobus.pkt_size_system.pc.south_bridge.io_apic.int_master::total           20                       # Cumulative packet size per connected master and slave (bytes)
system.iobus.pkt_size_system.ruby.l1_cntrl0.sequencer.mem-master-port::system.pc.south_bridge.io_apic.pio           12                       # Cumulative packet size per connected master and slave (bytes)
system.iobus.pkt_size_system.ruby.l1_cntrl0.sequencer.mem-master-port::system.pc.com_1.pio           11                       # Cumulative packet size per connected master and slave (bytes)
system.iobus.pkt_size_system.ruby.l1_cntrl0.sequencer.mem-master-port::system.ruby.l1_cntrl0.sequencer.pio-slave-port         1892                       # Cumulative packet size per connected master and slave (bytes)
system.iobus.pkt_size_system.ruby.l1_cntrl0.sequencer.mem-master-port::system.ruby.l1_cntrl1.sequencer.pio-slave-port            4                       # Cumulative packet size per connected master and slave (bytes)
system.iobus.pkt_size_system.ruby.l1_cntrl0.sequencer.mem-master-port::total         1919                       # Cumulative packet size per connected master and slave (bytes)
system.iobus.pkt_size_system.ruby.l1_cntrl1.sequencer.mem-master-port::system.pc.south_bridge.io_apic.pio           28                       # Cumulative packet size per connected master and slave (bytes)
system.iobus.pkt_size_system.ruby.l1_cntrl1.sequencer.mem-master-port::system.pc.com_1.pio           81                       # Cumulative packet size per connected master and slave (bytes)
system.iobus.pkt_size_system.ruby.l1_cntrl1.sequencer.mem-master-port::system.ruby.l1_cntrl0.sequencer.pio-slave-port            4                       # Cumulative packet size per connected master and slave (bytes)
system.iobus.pkt_size_system.ruby.l1_cntrl1.sequencer.mem-master-port::system.ruby.l1_cntrl1.sequencer.pio-slave-port         1924                       # Cumulative packet size per connected master and slave (bytes)
system.iobus.pkt_size_system.ruby.l1_cntrl1.sequencer.mem-master-port::system.ruby.l1_cntrl2.sequencer.pio-slave-port            4                       # Cumulative packet size per connected master and slave (bytes)
system.iobus.pkt_size_system.ruby.l1_cntrl1.sequencer.mem-master-port::system.ruby.l1_cntrl3.sequencer.pio-slave-port            4                       # Cumulative packet size per connected master and slave (bytes)
system.iobus.pkt_size_system.ruby.l1_cntrl1.sequencer.mem-master-port::total         2045                       # Cumulative packet size per connected master and slave (bytes)
system.iobus.pkt_size_system.ruby.l1_cntrl2.sequencer.mem-master-port::system.pc.south_bridge.io_apic.pio           16                       # Cumulative packet size per connected master and slave (bytes)
system.iobus.pkt_size_system.ruby.l1_cntrl2.sequencer.mem-master-port::system.ruby.l1_cntrl2.sequencer.pio-slave-port         1896                       # Cumulative packet size per connected master and slave (bytes)
system.iobus.pkt_size_system.ruby.l1_cntrl2.sequencer.mem-master-port::system.ruby.l1_cntrl3.sequencer.pio-slave-port            4                       # Cumulative packet size per connected master and slave (bytes)
system.iobus.pkt_size_system.ruby.l1_cntrl2.sequencer.mem-master-port::total         1916                       # Cumulative packet size per connected master and slave (bytes)
system.iobus.pkt_size_system.ruby.l1_cntrl3.sequencer.mem-master-port::system.pc.south_bridge.io_apic.pio           16                       # Cumulative packet size per connected master and slave (bytes)
system.iobus.pkt_size_system.ruby.l1_cntrl3.sequencer.mem-master-port::system.ruby.l1_cntrl0.sequencer.pio-slave-port            4                       # Cumulative packet size per connected master and slave (bytes)
system.iobus.pkt_size_system.ruby.l1_cntrl3.sequencer.mem-master-port::system.ruby.l1_cntrl1.sequencer.pio-slave-port            4                       # Cumulative packet size per connected master and slave (bytes)
system.iobus.pkt_size_system.ruby.l1_cntrl3.sequencer.mem-master-port::system.ruby.l1_cntrl2.sequencer.pio-slave-port            4                       # Cumulative packet size per connected master and slave (bytes)
system.iobus.pkt_size_system.ruby.l1_cntrl3.sequencer.mem-master-port::system.ruby.l1_cntrl3.sequencer.pio-slave-port         1916                       # Cumulative packet size per connected master and slave (bytes)
system.iobus.pkt_size_system.ruby.l1_cntrl3.sequencer.mem-master-port::total         1944                       # Cumulative packet size per connected master and slave (bytes)
system.iobus.pkt_size::total                     7844                       # Cumulative packet size per connected master and slave (bytes)
system.iobus.reqLayer8.occupancy                32996                       # Layer occupancy (ticks)
system.iobus.reqLayer8.utilization                0.0                       # Layer utilization (%)
system.iobus.reqLayer12.occupancy              121000                       # Layer occupancy (ticks)
system.iobus.reqLayer12.utilization               0.0                       # Layer utilization (%)
system.iobus.reqLayer17.occupancy             1094500                       # Layer occupancy (ticks)
system.iobus.reqLayer17.utilization               0.0                       # Layer utilization (%)
system.iobus.reqLayer18.occupancy             1102998                       # Layer occupancy (ticks)
system.iobus.reqLayer18.utilization               0.0                       # Layer utilization (%)
system.iobus.reqLayer19.occupancy             1093500                       # Layer occupancy (ticks)
system.iobus.reqLayer19.utilization               0.0                       # Layer utilization (%)
system.iobus.reqLayer20.occupancy             1207742                       # Layer occupancy (ticks)
system.iobus.reqLayer20.utilization               0.0                       # Layer utilization (%)
system.iobus.respLayer0.occupancy                6000                       # Layer occupancy (ticks)
system.iobus.respLayer0.utilization               0.0                       # Layer utilization (%)
system.iobus.respLayer2.occupancy              734500                       # Layer occupancy (ticks)
system.iobus.respLayer2.utilization               0.0                       # Layer utilization (%)
system.iobus.respLayer4.occupancy              877500                       # Layer occupancy (ticks)
system.iobus.respLayer4.utilization               0.0                       # Layer utilization (%)
system.iobus.respLayer6.occupancy              719000                       # Layer occupancy (ticks)
system.iobus.respLayer6.utilization               0.0                       # Layer utilization (%)
system.iobus.respLayer8.occupancy              731000                       # Layer occupancy (ticks)
system.iobus.respLayer8.utilization               0.0                       # Layer utilization (%)
system.pc.south_bridge.ide.disks.dma_read_full_pages            0                       # Number of full page size DMA reads (not PRD).
system.pc.south_bridge.ide.disks.dma_read_bytes            0                       # Number of bytes transfered via DMA reads (not PRD).
system.pc.south_bridge.ide.disks.dma_read_txs            0                       # Number of DMA read transactions (not PRD).
system.pc.south_bridge.ide.disks.dma_write_full_pages            0                       # Number of full page size DMA writes.
system.pc.south_bridge.ide.disks.dma_write_bytes            0                       # Number of bytes transfered via DMA writes.
system.pc.south_bridge.ide.disks.dma_write_txs            0                       # Number of DMA write transactions.
system.ruby.clk_domain.clock                      500                       # Clock period in ticks
system.ruby.delayHist::bucket_size                  4                       # delay histogram for all message
system.ruby.delayHist::max_bucket                  39                       # delay histogram for all message
system.ruby.delayHist::samples              157847337                       # delay histogram for all message
system.ruby.delayHist::mean                  0.918850                       # delay histogram for all message
system.ruby.delayHist::stdev                 2.550970                       # delay histogram for all message
system.ruby.delayHist                    |   139732187     88.52%     88.52% |       19263      0.01%     88.54% |    18090603     11.46%    100.00% |        1365      0.00%    100.00% |        3910      0.00%    100.00% |           1      0.00%    100.00% |           8      0.00%    100.00% |           0      0.00%    100.00% |           0      0.00%    100.00% |           0      0.00%    100.00% # delay histogram for all message
system.ruby.delayHist::total                157847337                       # delay histogram for all message
system.ruby.outstanding_req_hist_seqr::bucket_size            1                      
system.ruby.outstanding_req_hist_seqr::max_bucket            9                      
system.ruby.outstanding_req_hist_seqr::samples   1226239166                      
system.ruby.outstanding_req_hist_seqr::mean     1.000000                      
system.ruby.outstanding_req_hist_seqr::gmean     1.000000                      
system.ruby.outstanding_req_hist_seqr::stdev     0.000423                      
system.ruby.outstanding_req_hist_seqr    |           0      0.00%      0.00% |  1226238947    100.00%    100.00% |         219      0.00%    100.00% |           0      0.00%    100.00% |           0      0.00%    100.00% |           0      0.00%    100.00% |           0      0.00%    100.00% |           0      0.00%    100.00% |           0      0.00%    100.00% |           0      0.00%    100.00%
system.ruby.outstanding_req_hist_seqr::total   1226239166                      
system.ruby.latency_hist_seqr::bucket_size          512                      
system.ruby.latency_hist_seqr::max_bucket         5119                      
system.ruby.latency_hist_seqr::samples     1226239166                      
system.ruby.latency_hist_seqr::mean          2.071160                      
system.ruby.latency_hist_seqr::gmean         1.083518                      
system.ruby.latency_hist_seqr::stdev        12.863150                      
[...]
system.ruby.DMA_Controller.ReadRequest   |           2    100.00%    100.00% |           0      0.00%    100.00%
system.ruby.DMA_Controller.ReadRequest::total            2                      
system.ruby.DMA_Controller.WriteRequest  |         128    100.00%    100.00% |           0      0.00%    100.00%
system.ruby.DMA_Controller.WriteRequest::total          128                      
system.ruby.DMA_Controller.Data          |           2    100.00%    100.00% |           0      0.00%    100.00%
system.ruby.DMA_Controller.Data::total              2                      
system.ruby.DMA_Controller.Ack           |         128    100.00%    100.00% |           0      0.00%    100.00%
system.ruby.DMA_Controller.Ack::total             128                      
system.ruby.DMA_Controller.READY.ReadRequest |           2    100.00%    100.00% |           0      0.00%    100.00%
system.ruby.DMA_Controller.READY.ReadRequest::total            2                      
system.ruby.DMA_Controller.READY.WriteRequest |         128    100.00%    100.00% |           0      0.00%    100.00%
system.ruby.DMA_Controller.READY.WriteRequest::total          128                      
system.ruby.DMA_Controller.BUSY_RD.Data  |           2    100.00%    100.00% |           0      0.00%    100.00%
system.ruby.DMA_Controller.BUSY_RD.Data::total            2                      
system.ruby.DMA_Controller.BUSY_WR.Ack   |         128    100.00%    100.00% |           0      0.00%    100.00%
system.ruby.DMA_Controller.BUSY_WR.Ack::total          128                      
system.ruby.L1Cache_Controller.Load      |      971805      1.06%      1.06% |     3250398      3.53%      4.59% |      557215      0.61%      5.19% |    87306748     94.81%    100.00%
system.ruby.L1Cache_Controller.Load::total     92086166                      
system.ruby.L1Cache_Controller.Ifetch    |     4777354      0.44%      0.44% |    19435400      1.80%      2.25% |     2512389      0.23%      2.48% |  1051568761     97.52%    100.00%
system.ruby.L1Cache_Controller.Ifetch::total   1078293904                      
system.ruby.L1Cache_Controller.Store     |      782738      0.93%      0.93% |     2481848      2.96%      3.90% |      410781      0.49%      4.39% |    80064229     95.61%    100.00%
system.ruby.L1Cache_Controller.Store::total     83739596                      
system.ruby.L1Cache_Controller.Inv       |       51039     27.97%     27.97% |       51241     28.08%     56.05% |       45647     25.02%     81.07% |       34546     18.93%    100.00%
system.ruby.L1Cache_Controller.Inv::total       182473                      
system.ruby.L1Cache_Controller.L1_Replacement |       80486      0.27%      0.27% |      242842      0.83%      1.10% |       43447      0.15%      1.25% |    29049977     98.75%    100.00%
system.ruby.L1Cache_Controller.L1_Replacement::total     29416752                      
system.ruby.L1Cache_Controller.Fwd_GETX  |         688     26.69%     26.69% |         840     32.58%     59.27% |         505     19.59%     78.86% |         545     21.14%    100.00%
system.ruby.L1Cache_Controller.Fwd_GETX::total         2578                      
system.ruby.L1Cache_Controller.Fwd_GETS  |        6512     38.85%     38.85% |        5908     35.25%     74.10% |        3287     19.61%     93.71% |        1054      6.29%    100.00%
system.ruby.L1Cache_Controller.Fwd_GETS::total        16761                      
system.ruby.L1Cache_Controller.Data      |         562     21.47%     21.47% |         580     22.16%     43.64% |         856     32.71%     76.35% |         619     23.65%    100.00%
system.ruby.L1Cache_Controller.Data::total         2617                      
system.ruby.L1Cache_Controller.Data_Exclusive |       25289      0.15%      0.15% |      137280      0.81%      0.95% |       15339      0.09%      1.04% |    16857444     98.96%    100.00%
system.ruby.L1Cache_Controller.Data_Exclusive::total     17035352                      
system.ruby.L1Cache_Controller.DataS_fromL1 |        3330     19.87%     19.87% |        3439     20.52%     40.39% |        5473     32.65%     73.04% |        4519     26.96%    100.00%
system.ruby.L1Cache_Controller.DataS_fromL1::total        16761                      
system.ruby.L1Cache_Controller.Data_all_Acks |       91522      0.73%      0.73% |      139804      1.12%      1.85% |       59906      0.48%      2.33% |    12207931     97.67%    100.00%
system.ruby.L1Cache_Controller.Data_all_Acks::total     12499163                      
system.ruby.L1Cache_Controller.Ack       |       10852     50.15%     50.15% |        4221     19.51%     69.65% |        2834     13.10%     82.75% |        3733     17.25%    100.00%
system.ruby.L1Cache_Controller.Ack::total        21640                      
system.ruby.L1Cache_Controller.Ack_all   |        5023     39.25%     39.25% |        3078     24.05%     63.29% |        2199     17.18%     80.48% |        2499     19.52%    100.00%
system.ruby.L1Cache_Controller.Ack_all::total        12799                      
system.ruby.L1Cache_Controller.WB_Ack    |       30145      0.10%      0.10% |      192604      0.66%      0.76% |       13706      0.05%      0.81% |    28976233     99.19%    100.00%
system.ruby.L1Cache_Controller.WB_Ack::total     29212688                      
system.ruby.L1Cache_Controller.NP.Load   |       27600      0.16%      0.16% |      139121      0.82%      0.98% |       16333      0.10%      1.07% |    16874687     98.93%    100.00%
system.ruby.L1Cache_Controller.NP.Load::total     17057741                      
system.ruby.L1Cache_Controller.NP.Ifetch |       39043     25.11%     25.11% |       39123     25.16%     50.27% |       20854     13.41%     63.68% |       56487     36.32%    100.00%
system.ruby.L1Cache_Controller.NP.Ifetch::total       155507                      
system.ruby.L1Cache_Controller.NP.Store  |       13890      0.11%      0.11% |       64598      0.53%      0.64% |        6415      0.05%      0.70% |    12118803     99.30%    100.00%
system.ruby.L1Cache_Controller.NP.Store::total     12203706                      
system.ruby.L1Cache_Controller.NP.Inv    |        5299     18.26%     18.26% |        8496     29.28%     47.55% |        3200     11.03%     58.58% |       12017     41.42%    100.00%
system.ruby.L1Cache_Controller.NP.Inv::total        29012                      
system.ruby.L1Cache_Controller.I.Load    |        8865     28.74%     28.74% |       10427     33.81%     62.55% |       11008     35.69%     98.24% |         542      1.76%    100.00%
system.ruby.L1Cache_Controller.I.Load::total        30842                      
system.ruby.L1Cache_Controller.I.Ifetch  |       24060     28.72%     28.72% |       20205     24.12%     52.84% |       20229     24.15%     76.99% |       19278     23.01%    100.00%
system.ruby.L1Cache_Controller.I.Ifetch::total        83772                      
system.ruby.L1Cache_Controller.I.Store   |        7245     32.45%     32.45% |        7628     34.17%     66.62% |        6735     30.17%     96.79% |         716      3.21%    100.00%
system.ruby.L1Cache_Controller.I.Store::total        22324                      
system.ruby.L1Cache_Controller.I.L1_Replacement |        6240     32.98%     32.98% |        5324     28.14%     61.13% |        4871     25.75%     86.87% |        2483     13.13%    100.00%
system.ruby.L1Cache_Controller.I.L1_Replacement::total        18918                      
system.ruby.L1Cache_Controller.S.Load    |      119997     18.79%     18.79% |      270394     42.34%     61.13% |      101545     15.90%     77.03% |      146678     22.97%    100.00%
system.ruby.L1Cache_Controller.S.Load::total       638614                      
system.ruby.L1Cache_Controller.S.Ifetch  |     4714251      0.44%      0.44% |    19376072      1.80%      2.23% |     2471306      0.23%      2.46% |  1051492995     97.54%    100.00%
system.ruby.L1Cache_Controller.S.Ifetch::total   1078054624                      
system.ruby.L1Cache_Controller.S.Store   |        4461     43.81%     43.81% |        2499     24.54%     68.35% |        1343     13.19%     81.54% |        1880     18.46%    100.00%
system.ruby.L1Cache_Controller.S.Store::total        10183                      
system.ruby.L1Cache_Controller.S.Inv     |       32204     28.28%     28.28% |       30088     26.42%     54.69% |       30105     26.43%     81.13% |       21497     18.87%    100.00%
system.ruby.L1Cache_Controller.S.Inv::total       113894                      
system.ruby.L1Cache_Controller.S.L1_Replacement |       44101     23.82%     23.82% |       44914     24.26%     48.08% |       24870     13.43%     61.51% |       71261     38.49%    100.00%
system.ruby.L1Cache_Controller.S.L1_Replacement::total       185146                      
system.ruby.L1Cache_Controller.E.Load    |      161882      0.27%      0.27% |      520416      0.86%      1.13% |       90077      0.15%      1.28% |    59698821     98.72%    100.00%
system.ruby.L1Cache_Controller.E.Load::total     60471196                      
system.ruby.L1Cache_Controller.E.Store   |        6970      0.12%      0.12% |       82027      1.36%      1.48% |        2923      0.05%      1.53% |     5929725     98.47%    100.00%
system.ruby.L1Cache_Controller.E.Store::total      6021645                      
system.ruby.L1Cache_Controller.E.Inv     |        4408     35.46%     35.46% |        3713     29.87%     65.33% |        4071     32.75%     98.08% |         239      1.92%    100.00%
system.ruby.L1Cache_Controller.E.Inv::total        12431                      
system.ruby.L1Cache_Controller.E.L1_Replacement |       11032      0.10%      0.10% |       47506      0.43%      0.53% |        6396      0.06%      0.59% |    10926914     99.41%    100.00%
system.ruby.L1Cache_Controller.E.L1_Replacement::total     10991848                      
system.ruby.L1Cache_Controller.E.Fwd_GETX |         297     44.46%     44.46% |         109     16.32%     60.78% |          90     13.47%     74.25% |         172     25.75%    100.00%
system.ruby.L1Cache_Controller.E.Fwd_GETX::total          668                      
system.ruby.L1Cache_Controller.E.Fwd_GETS |        2519     28.99%     28.99% |        3935     45.29%     74.29% |        1846     21.25%     95.53% |         388      4.47%    100.00%
system.ruby.L1Cache_Controller.E.Fwd_GETS::total         8688                      
system.ruby.L1Cache_Controller.M.Load    |      653461      4.71%      4.71% |     2310040     16.63%     21.34% |      338252      2.44%     23.77% |    10586020     76.23%    100.00%
system.ruby.L1Cache_Controller.M.Load::total     13887773                      
system.ruby.L1Cache_Controller.M.Store   |      750172      1.15%      1.15% |     2325096      3.55%      4.70% |      393365      0.60%      5.30% |    62013105     94.70%    100.00%
system.ruby.L1Cache_Controller.M.Store::total     65481738                      
system.ruby.L1Cache_Controller.M.Inv     |        9128     33.64%     33.64% |        8943     32.96%     66.60% |        8271     30.48%     97.08% |         793      2.92%    100.00%
system.ruby.L1Cache_Controller.M.Inv::total        27135                      
system.ruby.L1Cache_Controller.M.L1_Replacement |       19113      0.10%      0.10% |      145098      0.80%      0.90% |        7310      0.04%      0.94% |    18049319     99.06%    100.00%
system.ruby.L1Cache_Controller.M.L1_Replacement::total     18220840                      
system.ruby.L1Cache_Controller.M.Fwd_GETX |         391     20.47%     20.47% |         731     38.27%     58.74% |         415     21.73%     80.47% |         373     19.53%    100.00%
system.ruby.L1Cache_Controller.M.Fwd_GETX::total         1910                      
system.ruby.L1Cache_Controller.M.Fwd_GETS |        3993     49.46%     49.46% |        1973     24.44%     73.90% |        1441     17.85%     91.75% |         666      8.25%    100.00%
system.ruby.L1Cache_Controller.M.Fwd_GETS::total         8073                      
system.ruby.L1Cache_Controller.IS.Data_Exclusive |       25289      0.15%      0.15% |      137280      0.81%      0.95% |       15339      0.09%      1.04% |    16857444     98.96%    100.00%
system.ruby.L1Cache_Controller.IS.Data_Exclusive::total     17035352                      
system.ruby.L1Cache_Controller.IS.DataS_fromL1 |        3330     19.87%     19.87% |        3439     20.52%     40.39% |        5473     32.65%     73.04% |        4519     26.96%    100.00%
system.ruby.L1Cache_Controller.IS.DataS_fromL1::total        16761                      
system.ruby.L1Cache_Controller.IS.Data_all_Acks |       70949     25.73%     25.73% |       68157     24.72%     50.45% |       47612     17.27%     67.71% |       89031     32.29%    100.00%
system.ruby.L1Cache_Controller.IS.Data_all_Acks::total       275749                      
system.ruby.L1Cache_Controller.IM.Data   |         562     21.47%     21.47% |         580     22.16%     43.64% |         856     32.71%     76.35% |         619     23.65%    100.00%
system.ruby.L1Cache_Controller.IM.Data::total         2617                      
system.ruby.L1Cache_Controller.IM.Data_all_Acks |       20573      0.17%      0.17% |       71647      0.59%      0.75% |       12294      0.10%      0.86% |    12118900     99.14%    100.00%
system.ruby.L1Cache_Controller.IM.Data_all_Acks::total     12223414                      
system.ruby.L1Cache_Controller.SM.Inv    |           0      0.00%      0.00% |           1    100.00%    100.00% |           0      0.00%    100.00% |           0      0.00%    100.00%
system.ruby.L1Cache_Controller.SM.Inv::total            1                      
system.ruby.L1Cache_Controller.SM.Ack    |       10852     50.15%     50.15% |        4221     19.51%     69.65% |        2834     13.10%     82.75% |        3733     17.25%    100.00%
system.ruby.L1Cache_Controller.SM.Ack::total        21640                      
system.ruby.L1Cache_Controller.SM.Ack_all |        5023     39.25%     39.25% |        3078     24.05%     63.29% |        2199     17.18%     80.48% |        2499     19.52%    100.00%
system.ruby.L1Cache_Controller.SM.Ack_all::total        12799                      
system.ruby.L1Cache_Controller.M_I.Ifetch |           0      0.00%      0.00% |           0      0.00%      0.00% |           0      0.00%      0.00% |           1    100.00%    100.00%
system.ruby.L1Cache_Controller.M_I.Ifetch::total            1                      
system.ruby.L1Cache_Controller.M_I.WB_Ack |       30145      0.10%      0.10% |      192604      0.66%      0.76% |       13706      0.05%      0.81% |    28976233     99.19%    100.00%
system.ruby.L1Cache_Controller.M_I.WB_Ack::total     29212688                      
system.ruby.L2Cache_Controller.L1_GET_INSTR       239279      0.00%      0.00%
system.ruby.L2Cache_Controller.L1_GETS       17088822      0.00%      0.00%
system.ruby.L2Cache_Controller.L1_GETX       12226034      0.00%      0.00%
system.ruby.L2Cache_Controller.L1_UPGRADE        10183      0.00%      0.00%
system.ruby.L2Cache_Controller.L1_PUTX       29212688      0.00%      0.00%
system.ruby.L2Cache_Controller.L2_Replacement      2720059      0.00%      0.00%
system.ruby.L2Cache_Controller.L2_Replacement_clean      3254772      0.00%      0.00%
system.ruby.L2Cache_Controller.Mem_Data       5992331      0.00%      0.00%
system.ruby.L2Cache_Controller.Mem_Ack        5974833      0.00%      0.00%
system.ruby.L2Cache_Controller.WB_Data          35208      0.00%      0.00%
system.ruby.L2Cache_Controller.WB_Data_clean         8688      0.00%      0.00%
system.ruby.L2Cache_Controller.Ack              69231      0.00%      0.00%
system.ruby.L2Cache_Controller.Ack_all          61850      0.00%      0.00%
system.ruby.L2Cache_Controller.Unblock          16761      0.00%      0.00%
system.ruby.L2Cache_Controller.Exclusive_Unblock     29271565      0.00%      0.00%
system.ruby.L2Cache_Controller.MEM_Inv              4      0.00%      0.00%
system.ruby.L2Cache_Controller.NP.L1_GET_INSTR        47419      0.00%      0.00%
system.ruby.L2Cache_Controller.NP.L1_GETS      3231131      0.00%      0.00%
system.ruby.L2Cache_Controller.NP.L1_GETX      2713781      0.00%      0.00%
system.ruby.L2Cache_Controller.SS.L1_GET_INSTR       191842      0.00%      0.00%
system.ruby.L2Cache_Controller.SS.L1_GETS        36416      0.00%      0.00%
system.ruby.L2Cache_Controller.SS.L1_GETX         2617      0.00%      0.00%
system.ruby.L2Cache_Controller.SS.L1_UPGRADE        10182      0.00%      0.00%
system.ruby.L2Cache_Controller.SS.L2_Replacement          802      0.00%      0.00%
system.ruby.L2Cache_Controller.SS.L2_Replacement_clean        48617      0.00%      0.00%
system.ruby.L2Cache_Controller.M.L1_GET_INSTR           18      0.00%      0.00%
system.ruby.L2Cache_Controller.M.L1_GETS     13804248      0.00%      0.00%
system.ruby.L2Cache_Controller.M.L1_GETX      9507055      0.00%      0.00%
system.ruby.L2Cache_Controller.M.L2_Replacement      2717938      0.00%      0.00%
system.ruby.L2Cache_Controller.M.L2_Replacement_clean      3167910      0.00%      0.00%
system.ruby.L2Cache_Controller.MT.L1_GETS        16761      0.00%      0.00%
system.ruby.L2Cache_Controller.MT.L1_GETX         2578      0.00%      0.00%
system.ruby.L2Cache_Controller.MT.L1_PUTX     29212688      0.00%      0.00%
system.ruby.L2Cache_Controller.MT.L2_Replacement         1319      0.00%      0.00%
system.ruby.L2Cache_Controller.MT.L2_Replacement_clean        38245      0.00%      0.00%
system.ruby.L2Cache_Controller.MT.MEM_Inv            2      0.00%      0.00%
system.ruby.L2Cache_Controller.M_I.Mem_Ack      5974833      0.00%      0.00%
system.ruby.L2Cache_Controller.MT_I.WB_Data         1076      0.00%      0.00%
system.ruby.L2Cache_Controller.MT_I.Ack_all          245      0.00%      0.00%
system.ruby.L2Cache_Controller.MT_I.MEM_Inv            2      0.00%      0.00%
system.ruby.L2Cache_Controller.MCT_I.WB_Data        26059      0.00%      0.00%
system.ruby.L2Cache_Controller.MCT_I.Ack_all        12186      0.00%      0.00%
system.ruby.L2Cache_Controller.I_I.Ack          68280      0.00%      0.00%
system.ruby.L2Cache_Controller.I_I.Ack_all        48617      0.00%      0.00%
system.ruby.L2Cache_Controller.S_I.Ack            951      0.00%      0.00%
system.ruby.L2Cache_Controller.S_I.Ack_all          802      0.00%      0.00%
system.ruby.L2Cache_Controller.ISS.L1_GETS           27      0.00%      0.00%
system.ruby.L2Cache_Controller.ISS.Mem_Data      3231104      0.00%      0.00%
system.ruby.L2Cache_Controller.IS.Mem_Data        47446      0.00%      0.00%
system.ruby.L2Cache_Controller.IM.Mem_Data      2713781      0.00%      0.00%
system.ruby.L2Cache_Controller.SS_MB.L1_GETS           53      0.00%      0.00%
system.ruby.L2Cache_Controller.SS_MB.L1_UPGRADE            1      0.00%      0.00%
system.ruby.L2Cache_Controller.SS_MB.Exclusive_Unblock        12799      0.00%      0.00%
system.ruby.L2Cache_Controller.MT_MB.L1_GETS          184      0.00%      0.00%
system.ruby.L2Cache_Controller.MT_MB.L1_GETX            2      0.00%      0.00%
system.ruby.L2Cache_Controller.MT_MB.Exclusive_Unblock     29258766      0.00%      0.00%
system.ruby.L2Cache_Controller.MT_IIB.L1_GETS            2      0.00%      0.00%
system.ruby.L2Cache_Controller.MT_IIB.L1_GETX            1      0.00%      0.00%
system.ruby.L2Cache_Controller.MT_IIB.WB_Data         8060      0.00%      0.00%
system.ruby.L2Cache_Controller.MT_IIB.WB_Data_clean         8659      0.00%      0.00%
system.ruby.L2Cache_Controller.MT_IIB.Unblock           42      0.00%      0.00%
system.ruby.L2Cache_Controller.MT_IB.WB_Data           13      0.00%      0.00%
system.ruby.L2Cache_Controller.MT_IB.WB_Data_clean           29      0.00%      0.00%
system.ruby.L2Cache_Controller.MT_SB.Unblock        16719      0.00%      0.00%

---------- End Simulation Statistics   ----------
