
---------- Begin Simulation Statistics ----------
sim_seconds                                  2.406215                       # Number of seconds simulated
sim_ticks                                2406214681000                       # Number of ticks simulated
final_tick                               57353325680501                       # Number of ticks from beginning of simulation (restored from checkpoints and never reset)
sim_freq                                 1000000000000                       # Frequency of simulated ticks
host_inst_rate                                 142723                       # Simulator instruction rate (inst/s)
host_op_rate                                   258714                       # Simulator op (including micro ops) rate (op/s)
host_tick_rate                              261505550                       # Simulator tick rate (ticks/s)
host_mem_usage                                1856824                       # Number of bytes of host memory used
host_seconds                                  9201.39                       # Real time elapsed on the host
sim_insts                                  1313248066                       # Number of instructions simulated
sim_ops                                    2380529311                       # Number of ops (including micro ops) simulated
system.voltage_domain.voltage                       1                       # Voltage in Volts
system.clk_domain.clock                          1000                       # Clock period in ticks
system.mem_ctrls.bytes_read::ruby.dir_cntrl0     83771712                       # Number of bytes read from this memory
system.mem_ctrls.bytes_read::total           83771712                       # Number of bytes read from this memory
system.mem_ctrls.bytes_written::ruby.dir_cntrl0     47527168                       # Number of bytes written to this memory
system.mem_ctrls.bytes_written::total        47527168                       # Number of bytes written to this memory
system.mem_ctrls.num_reads::ruby.dir_cntrl0      1308933                       # Number of read requests responded to by this memory
system.mem_ctrls.num_reads::total             1308933                       # Number of read requests responded to by this memory
system.mem_ctrls.num_writes::ruby.dir_cntrl0       742612                       # Number of write requests responded to by this memory
system.mem_ctrls.num_writes::total             742612                       # Number of write requests responded to by this memory
system.mem_ctrls.bw_read::ruby.dir_cntrl0     34814729                       # Total read bandwidth from this memory (bytes/s)
system.mem_ctrls.bw_read::total              34814729                       # Total read bandwidth from this memory (bytes/s)
system.mem_ctrls.bw_write::ruby.dir_cntrl0     19751840                       # Write bandwidth from this memory (bytes/s)
system.mem_ctrls.bw_write::total             19751840                       # Write bandwidth from this memory (bytes/s)
system.mem_ctrls.bw_total::ruby.dir_cntrl0     54566569                       # Total bandwidth to/from this memory (bytes/s)
system.mem_ctrls.bw_total::total             54566569                       # Total bandwidth to/from this memory (bytes/s)
system.mem_ctrls.readReqs                     1308933                       # Number of read requests accepted
system.mem_ctrls.writeReqs                     742612                       # Number of write requests accepted
system.mem_ctrls.readBursts                   1308933                       # Number of DRAM read bursts, including those serviced by the write queue
system.mem_ctrls.writeBursts                   742612                       # Number of DRAM write bursts, including those merged in the write queue
system.mem_ctrls.bytesReadDRAM               83743808                       # Total number of bytes read from DRAM
system.mem_ctrls.bytesReadWrQ                   27904                       # Total number of bytes read from write queue
system.mem_ctrls.bytesWritten                47525440                       # Total number of bytes written to DRAM
system.mem_ctrls.bytesReadSys                83771712                       # Total read bytes from the system interface side
system.mem_ctrls.bytesWrittenSys             47527168                       # Total written bytes from the system interface side
system.mem_ctrls.servicedByWrQ                    436                       # Number of DRAM read bursts serviced by the write queue
system.mem_ctrls.mergedWrBursts                    27                       # Number of DRAM write bursts merged with an existing one
system.mem_ctrls.neitherReadNorWriteReqs            0                       # Number of requests that are neither read nor write
system.mem_ctrls.perBankRdBursts::0             83262                       # Per bank write bursts
system.mem_ctrls.perBankRdBursts::1             82108                       # Per bank write bursts
system.mem_ctrls.perBankRdBursts::2             79777                       # Per bank write bursts
system.mem_ctrls.perBankRdBursts::3             81198                       # Per bank write bursts
system.mem_ctrls.perBankRdBursts::4             81164                       # Per bank write bursts
system.mem_ctrls.perBankRdBursts::5             82951                       # Per bank write bursts
system.mem_ctrls.perBankRdBursts::6             85284                       # Per bank write bursts
system.mem_ctrls.perBankRdBursts::7             81454                       # Per bank write bursts
system.mem_ctrls.perBankRdBursts::8             82384                       # Per bank write bursts
system.mem_ctrls.perBankRdBursts::9             82863                       # Per bank write bursts
system.mem_ctrls.perBankRdBursts::10            79036                       # Per bank write bursts
system.mem_ctrls.perBankRdBursts::11            80361                       # Per bank write bursts
system.mem_ctrls.perBankRdBursts::12            80322                       # Per bank write bursts
system.mem_ctrls.perBankRdBursts::13            80374                       # Per bank write bursts
system.mem_ctrls.perBankRdBursts::14            82354                       # Per bank write bursts
system.mem_ctrls.perBankRdBursts::15            83605                       # Per bank write bursts
system.mem_ctrls.perBankWrBursts::0             46082                       # Per bank write bursts
system.mem_ctrls.perBankWrBursts::1             47647                       # Per bank write bursts
system.mem_ctrls.perBankWrBursts::2             46288                       # Per bank write bursts
system.mem_ctrls.perBankWrBursts::3             45587                       # Per bank write bursts
system.mem_ctrls.perBankWrBursts::4             46024                       # Per bank write bursts
system.mem_ctrls.perBankWrBursts::5             47372                       # Per bank write bursts
system.mem_ctrls.perBankWrBursts::6             47575                       # Per bank write bursts
system.mem_ctrls.perBankWrBursts::7             47103                       # Per bank write bursts
system.mem_ctrls.perBankWrBursts::8             47339                       # Per bank write bursts
system.mem_ctrls.perBankWrBursts::9             46336                       # Per bank write bursts
system.mem_ctrls.perBankWrBursts::10            45552                       # Per bank write bursts
system.mem_ctrls.perBankWrBursts::11            46040                       # Per bank write bursts
system.mem_ctrls.perBankWrBursts::12            45325                       # Per bank write bursts
system.mem_ctrls.perBankWrBursts::13            45760                       # Per bank write bursts
system.mem_ctrls.perBankWrBursts::14            46150                       # Per bank write bursts
system.mem_ctrls.perBankWrBursts::15            46405                       # Per bank write bursts
system.mem_ctrls.numRdRetry                         0                       # Number of times read queue was full causing retry
system.mem_ctrls.numWrRetry                         0                       # Number of times write queue was full causing retry
system.mem_ctrls.totGap                  2406214606000                       # Total gap between requests
system.mem_ctrls.readPktSize::0                     0                       # Read request sizes (log2)
system.mem_ctrls.readPktSize::1                     0                       # Read request sizes (log2)
system.mem_ctrls.readPktSize::2                     0                       # Read request sizes (log2)
system.mem_ctrls.readPktSize::3                     0                       # Read request sizes (log2)
system.mem_ctrls.readPktSize::4                     0                       # Read request sizes (log2)
system.mem_ctrls.readPktSize::5                     0                       # Read request sizes (log2)
system.mem_ctrls.readPktSize::6               1308933                       # Read request sizes (log2)
system.mem_ctrls.writePktSize::0                    0                       # Write request sizes (log2)
system.mem_ctrls.writePktSize::1                    0                       # Write request sizes (log2)
system.mem_ctrls.writePktSize::2                    0                       # Write request sizes (log2)
system.mem_ctrls.writePktSize::3                    0                       # Write request sizes (log2)
system.mem_ctrls.writePktSize::4                    0                       # Write request sizes (log2)
system.mem_ctrls.writePktSize::5                    0                       # Write request sizes (log2)
system.mem_ctrls.writePktSize::6               742612                       # Write request sizes (log2)
system.mem_ctrls.rdQLenPdf::0                 1304649                       # What read queue length does an incoming req see
system.mem_ctrls.rdQLenPdf::1                    3844                       # What read queue length does an incoming req see
system.mem_ctrls.rdQLenPdf::2                       4                       # What read queue length does an incoming req see
system.mem_ctrls.rdQLenPdf::3                       0                       # What read queue length does an incoming req see
system.mem_ctrls.rdQLenPdf::4                       0                       # What read queue length does an incoming req see
system.mem_ctrls.rdQLenPdf::5                       0                       # What read queue length does an incoming req see
system.mem_ctrls.rdQLenPdf::6                       0                       # What read queue length does an incoming req see
system.mem_ctrls.rdQLenPdf::7                       0                       # What read queue length does an incoming req see
system.mem_ctrls.rdQLenPdf::8                       0                       # What read queue length does an incoming req see
system.mem_ctrls.rdQLenPdf::9                       0                       # What read queue length does an incoming req see
system.mem_ctrls.rdQLenPdf::10                      0                       # What read queue length does an incoming req see
system.mem_ctrls.rdQLenPdf::11                      0                       # What read queue length does an incoming req see
system.mem_ctrls.rdQLenPdf::12                      0                       # What read queue length does an incoming req see
system.mem_ctrls.rdQLenPdf::13                      0                       # What read queue length does an incoming req see
system.mem_ctrls.rdQLenPdf::14                      0                       # What read queue length does an incoming req see
system.mem_ctrls.rdQLenPdf::15                      0                       # What read queue length does an incoming req see
system.mem_ctrls.rdQLenPdf::16                      0                       # What read queue length does an incoming req see
system.mem_ctrls.rdQLenPdf::17                      0                       # What read queue length does an incoming req see
system.mem_ctrls.rdQLenPdf::18                      0                       # What read queue length does an incoming req see
system.mem_ctrls.rdQLenPdf::19                      0                       # What read queue length does an incoming req see
system.mem_ctrls.rdQLenPdf::20                      0                       # What read queue length does an incoming req see
system.mem_ctrls.rdQLenPdf::21                      0                       # What read queue length does an incoming req see
system.mem_ctrls.rdQLenPdf::22                      0                       # What read queue length does an incoming req see
system.mem_ctrls.rdQLenPdf::23                      0                       # What read queue length does an incoming req see
system.mem_ctrls.rdQLenPdf::24                      0                       # What read queue length does an incoming req see
system.mem_ctrls.rdQLenPdf::25                      0                       # What read queue length does an incoming req see
system.mem_ctrls.rdQLenPdf::26                      0                       # What read queue length does an incoming req see
system.mem_ctrls.rdQLenPdf::27                      0                       # What read queue length does an incoming req see
system.mem_ctrls.rdQLenPdf::28                      0                       # What read queue length does an incoming req see
system.mem_ctrls.rdQLenPdf::29                      0                       # What read queue length does an incoming req see
system.mem_ctrls.rdQLenPdf::30                      0                       # What read queue length does an incoming req see
system.mem_ctrls.rdQLenPdf::31                      0                       # What read queue length does an incoming req see
system.mem_ctrls.wrQLenPdf::0                       0                       # What write queue length does an incoming req see
system.mem_ctrls.wrQLenPdf::1                       0                       # What write queue length does an incoming req see
system.mem_ctrls.wrQLenPdf::2                       0                       # What write queue length does an incoming req see
system.mem_ctrls.wrQLenPdf::3                       0                       # What write queue length does an incoming req see
system.mem_ctrls.wrQLenPdf::4                       0                       # What write queue length does an incoming req see
system.mem_ctrls.wrQLenPdf::5                       0                       # What write queue length does an incoming req see
system.mem_ctrls.wrQLenPdf::6                       0                       # What write queue length does an incoming req see
system.mem_ctrls.wrQLenPdf::7                       0                       # What write queue length does an incoming req see
system.mem_ctrls.wrQLenPdf::8                       0                       # What write queue length does an incoming req see
system.mem_ctrls.wrQLenPdf::9                       0                       # What write queue length does an incoming req see
system.mem_ctrls.wrQLenPdf::10                      0                       # What write queue length does an incoming req see
system.mem_ctrls.wrQLenPdf::11                      0                       # What write queue length does an incoming req see
system.mem_ctrls.wrQLenPdf::12                      0                       # What write queue length does an incoming req see
system.mem_ctrls.wrQLenPdf::13                      0                       # What write queue length does an incoming req see
system.mem_ctrls.wrQLenPdf::14                      0                       # What write queue length does an incoming req see
system.mem_ctrls.wrQLenPdf::15                    798                       # What write queue length does an incoming req see
system.mem_ctrls.wrQLenPdf::16                    894                       # What write queue length does an incoming req see
system.mem_ctrls.wrQLenPdf::17                  45862                       # What write queue length does an incoming req see
system.mem_ctrls.wrQLenPdf::18                  46338                       # What write queue length does an incoming req see
system.mem_ctrls.wrQLenPdf::19                  46337                       # What write queue length does an incoming req see
system.mem_ctrls.wrQLenPdf::20                  46361                       # What write queue length does an incoming req see
system.mem_ctrls.wrQLenPdf::21                  46345                       # What write queue length does an incoming req see
system.mem_ctrls.wrQLenPdf::22                  46349                       # What write queue length does an incoming req see
system.mem_ctrls.wrQLenPdf::23                  46365                       # What write queue length does an incoming req see
system.mem_ctrls.wrQLenPdf::24                  46355                       # What write queue length does an incoming req see
system.mem_ctrls.wrQLenPdf::25                  46339                       # What write queue length does an incoming req see
system.mem_ctrls.wrQLenPdf::26                  46346                       # What write queue length does an incoming req see
system.mem_ctrls.wrQLenPdf::27                  46325                       # What write queue length does an incoming req see
system.mem_ctrls.wrQLenPdf::28                  46323                       # What write queue length does an incoming req see
system.mem_ctrls.wrQLenPdf::29                  46317                       # What write queue length does an incoming req see
system.mem_ctrls.wrQLenPdf::30                  46313                       # What write queue length does an incoming req see
system.mem_ctrls.wrQLenPdf::31                  46305                       # What write queue length does an incoming req see
system.mem_ctrls.wrQLenPdf::32                  46302                       # What write queue length does an incoming req see
system.mem_ctrls.wrQLenPdf::33                      4                       # What write queue length does an incoming req see
system.mem_ctrls.wrQLenPdf::34                      2                       # What write queue length does an incoming req see
system.mem_ctrls.wrQLenPdf::35                      2                       # What write queue length does an incoming req see
system.mem_ctrls.wrQLenPdf::36                      1                       # What write queue length does an incoming req see
system.mem_ctrls.wrQLenPdf::37                      1                       # What write queue length does an incoming req see
system.mem_ctrls.wrQLenPdf::38                      1                       # What write queue length does an incoming req see
system.mem_ctrls.wrQLenPdf::39                      0                       # What write queue length does an incoming req see
system.mem_ctrls.wrQLenPdf::40                      0                       # What write queue length does an incoming req see
system.mem_ctrls.wrQLenPdf::41                      0                       # What write queue length does an incoming req see
system.mem_ctrls.wrQLenPdf::42                      0                       # What write queue length does an incoming req see
system.mem_ctrls.wrQLenPdf::43                      0                       # What write queue length does an incoming req see
system.mem_ctrls.wrQLenPdf::44                      0                       # What write queue length does an incoming req see
system.mem_ctrls.wrQLenPdf::45                      0                       # What write queue length does an incoming req see
system.mem_ctrls.wrQLenPdf::46                      0                       # What write queue length does an incoming req see
system.mem_ctrls.wrQLenPdf::47                      0                       # What write queue length does an incoming req see
system.mem_ctrls.wrQLenPdf::48                      0                       # What write queue length does an incoming req see
system.mem_ctrls.wrQLenPdf::49                      0                       # What write queue length does an incoming req see
system.mem_ctrls.wrQLenPdf::50                      0                       # What write queue length does an incoming req see
system.mem_ctrls.wrQLenPdf::51                      0                       # What write queue length does an incoming req see
system.mem_ctrls.wrQLenPdf::52                      0                       # What write queue length does an incoming req see
system.mem_ctrls.wrQLenPdf::53                      0                       # What write queue length does an incoming req see
system.mem_ctrls.wrQLenPdf::54                      0                       # What write queue length does an incoming req see
system.mem_ctrls.wrQLenPdf::55                      0                       # What write queue length does an incoming req see
system.mem_ctrls.wrQLenPdf::56                      0                       # What write queue length does an incoming req see
system.mem_ctrls.wrQLenPdf::57                      0                       # What write queue length does an incoming req see
system.mem_ctrls.wrQLenPdf::58                      0                       # What write queue length does an incoming req see
system.mem_ctrls.wrQLenPdf::59                      0                       # What write queue length does an incoming req see
system.mem_ctrls.wrQLenPdf::60                      0                       # What write queue length does an incoming req see
system.mem_ctrls.wrQLenPdf::61                      0                       # What write queue length does an incoming req see
system.mem_ctrls.wrQLenPdf::62                      0                       # What write queue length does an incoming req see
system.mem_ctrls.wrQLenPdf::63                      0                       # What write queue length does an incoming req see
system.mem_ctrls.bytesPerActivate::samples       771075                       # Bytes accessed per row activation
system.mem_ctrls.bytesPerActivate::mean    170.242283                       # Bytes accessed per row activation
system.mem_ctrls.bytesPerActivate::gmean   121.899938                       # Bytes accessed per row activation
system.mem_ctrls.bytesPerActivate::stdev   180.703164                       # Bytes accessed per row activation
system.mem_ctrls.bytesPerActivate::0-127       371536     48.18%     48.18% # Bytes accessed per row activation
system.mem_ctrls.bytesPerActivate::128-255       227507     29.51%     77.69% # Bytes accessed per row activation
system.mem_ctrls.bytesPerActivate::256-383       107102     13.89%     91.58% # Bytes accessed per row activation
system.mem_ctrls.bytesPerActivate::384-511        20138      2.61%     94.19% # Bytes accessed per row activation
system.mem_ctrls.bytesPerActivate::512-639        13102      1.70%     95.89% # Bytes accessed per row activation
system.mem_ctrls.bytesPerActivate::640-767         7929      1.03%     96.92% # Bytes accessed per row activation
system.mem_ctrls.bytesPerActivate::768-895         6810      0.88%     97.80% # Bytes accessed per row activation
system.mem_ctrls.bytesPerActivate::896-1023         4446      0.58%     98.38% # Bytes accessed per row activation
system.mem_ctrls.bytesPerActivate::1024-1151        12505      1.62%    100.00% # Bytes accessed per row activation
system.mem_ctrls.bytesPerActivate::total       771075                       # Bytes accessed per row activation
system.mem_ctrls.rdPerTurnAround::samples        46300                       # Reads before turning the bus around for writes
system.mem_ctrls.rdPerTurnAround::mean      28.261210                       # Reads before turning the bus around for writes
system.mem_ctrls.rdPerTurnAround::stdev     48.860707                       # Reads before turning the bus around for writes
system.mem_ctrls.rdPerTurnAround::0-255         46197     99.78%     99.78% # Reads before turning the bus around for writes
system.mem_ctrls.rdPerTurnAround::256-511           95      0.21%     99.98% # Reads before turning the bus around for writes
system.mem_ctrls.rdPerTurnAround::512-767            2      0.00%     99.99% # Reads before turning the bus around for writes
system.mem_ctrls.rdPerTurnAround::1280-1535            1      0.00%     99.99% # Reads before turning the bus around for writes
system.mem_ctrls.rdPerTurnAround::2304-2559            1      0.00%     99.99% # Reads before turning the bus around for writes
system.mem_ctrls.rdPerTurnAround::2560-2815            1      0.00%     99.99% # Reads before turning the bus around for writes
system.mem_ctrls.rdPerTurnAround::4352-4607            1      0.00%    100.00% # Reads before turning the bus around for writes
system.mem_ctrls.rdPerTurnAround::4608-4863            1      0.00%    100.00% # Reads before turning the bus around for writes
system.mem_ctrls.rdPerTurnAround::5120-5375            1      0.00%    100.00% # Reads before turning the bus around for writes
system.mem_ctrls.rdPerTurnAround::total         46300                       # Reads before turning the bus around for writes
system.mem_ctrls.wrPerTurnAround::samples        46300                       # Writes before turning the bus around for reads
system.mem_ctrls.wrPerTurnAround::mean      16.038553                       # Writes before turning the bus around for reads
system.mem_ctrls.wrPerTurnAround::gmean     16.036100                       # Writes before turning the bus around for reads
system.mem_ctrls.wrPerTurnAround::stdev      0.300118                       # Writes before turning the bus around for reads
system.mem_ctrls.wrPerTurnAround::16            45409     98.08%     98.08% # Writes before turning the bus around for reads
system.mem_ctrls.wrPerTurnAround::17               63      0.14%     98.21% # Writes before turning the bus around for reads
system.mem_ctrls.wrPerTurnAround::18              814      1.76%     99.97% # Writes before turning the bus around for reads
system.mem_ctrls.wrPerTurnAround::19                7      0.02%     99.98% # Writes before turning the bus around for reads
system.mem_ctrls.wrPerTurnAround::23                2      0.00%     99.99% # Writes before turning the bus around for reads
system.mem_ctrls.wrPerTurnAround::24                1      0.00%     99.99% # Writes before turning the bus around for reads
system.mem_ctrls.wrPerTurnAround::25                1      0.00%     99.99% # Writes before turning the bus around for reads
system.mem_ctrls.wrPerTurnAround::26                1      0.00%    100.00% # Writes before turning the bus around for reads
system.mem_ctrls.wrPerTurnAround::31                1      0.00%    100.00% # Writes before turning the bus around for reads
system.mem_ctrls.wrPerTurnAround::33                1      0.00%    100.00% # Writes before turning the bus around for reads
system.mem_ctrls.wrPerTurnAround::total         46300                       # Writes before turning the bus around for reads
system.mem_ctrls.totQLat                  17406988914                       # Total ticks spent queuing
system.mem_ctrls.totMemAccLat             41941307664                       # Total ticks spent from burst creation until serviced by the DRAM
system.mem_ctrls.totBusLat                 6542485000                       # Total ticks spent in databus transfers
system.mem_ctrls.avgQLat                     13303.04                       # Average queueing delay per DRAM burst
system.mem_ctrls.avgBusLat                    5000.00                       # Average bus latency per DRAM burst
system.mem_ctrls.avgMemAccLat                32053.04                       # Average memory access latency per DRAM burst
system.mem_ctrls.avgRdBW                        34.80                       # Average DRAM read bandwidth in MiByte/s
system.mem_ctrls.avgWrBW                        19.75                       # Average achieved write bandwidth in MiByte/s
system.mem_ctrls.avgRdBWSys                     34.81                       # Average system read bandwidth in MiByte/s
system.mem_ctrls.avgWrBWSys                     19.75                       # Average system write bandwidth in MiByte/s
system.mem_ctrls.peakBW                      12800.00                       # Theoretical peak bandwidth in MiByte/s
system.mem_ctrls.busUtil                         0.43                       # Data bus utilization in percentage
system.mem_ctrls.busUtilRead                     0.27                       # Data bus utilization in percentage for reads
system.mem_ctrls.busUtilWrite                    0.15                       # Data bus utilization in percentage for writes
system.mem_ctrls.avgRdQLen                       1.00                       # Average read queue length when enqueuing
system.mem_ctrls.avgWrQLen                      25.48                       # Average write queue length when enqueuing
system.mem_ctrls.readRowHits                   962145                       # Number of row buffer hits during reads
system.mem_ctrls.writeRowHits                  317863                       # Number of row buffer hits during writes
system.mem_ctrls.readRowHitRate                 73.53                       # Row buffer hit rate for reads
system.mem_ctrls.writeRowHitRate                42.80                       # Row buffer hit rate for writes
system.mem_ctrls.avgGap                    1172879.27                       # Average gap between requests
system.mem_ctrls.pageHitRate                    62.41                       # Row buffer hit rate, read and write combined
system.mem_ctrls_0.actEnergy               2981195280                       # Energy for activate commands per rank (pJ)
system.mem_ctrls_0.preEnergy               1626644250                       # Energy for precharge commands per rank (pJ)
system.mem_ctrls_0.readEnergy              5285139600                       # Energy for read commands per rank (pJ)
system.mem_ctrls_0.writeEnergy             2444320800                       # Energy for write commands per rank (pJ)
system.mem_ctrls_0.refreshEnergy         157948056240                       # Energy for refresh commands per rank (pJ)
system.mem_ctrls_0.actBackEnergy         319521073590                       # Energy for active background per rank (pJ)
system.mem_ctrls_0.preBackEnergy         1170665955750                       # Energy for precharge background per rank (pJ)
system.mem_ctrls_0.totalEnergy           1660472385510                       # Total energy per rank (pJ)
system.mem_ctrls_0.averagePower            686.643289                       # Core power per rank (mW)
system.mem_ctrls_0.memoryStateTime::IDLE 1940737880250                       # Time in different power states
system.mem_ctrls_0.memoryStateTime::REF   80348580000                       # Time in different power states
system.mem_ctrls_0.memoryStateTime::PRE_PDN            0                       # Time in different power states
system.mem_ctrls_0.memoryStateTime::ACT  385128705750                       # Time in different power states
system.mem_ctrls_0.memoryStateTime::ACT_PDN            0                       # Time in different power states
system.mem_ctrls_1.actEnergy               2927065680                       # Energy for activate commands per rank (pJ)
system.mem_ctrls_1.preEnergy               1597109250                       # Energy for precharge commands per rank (pJ)
system.mem_ctrls_1.readEnergy              5226616200                       # Energy for read commands per rank (pJ)
system.mem_ctrls_1.writeEnergy             2406296160                       # Energy for write commands per rank (pJ)
system.mem_ctrls_1.refreshEnergy         157948056240                       # Energy for refresh commands per rank (pJ)
system.mem_ctrls_1.actBackEnergy         317886374295                       # Energy for active background per rank (pJ)
system.mem_ctrls_1.preBackEnergy         1172099894250                       # Energy for precharge background per rank (pJ)
system.mem_ctrls_1.totalEnergy           1660091412075                       # Total energy per rank (pJ)
system.mem_ctrls_1.averagePower            686.485751                       # Core power per rank (mW)
system.mem_ctrls_1.memoryStateTime::IDLE 1942121629002                       # Time in different power states
system.mem_ctrls_1.memoryStateTime::REF   80348840000                       # Time in different power states
system.mem_ctrls_1.memoryStateTime::PRE_PDN            0                       # Time in different power states
system.mem_ctrls_1.memoryStateTime::ACT  383745499748                       # Time in different power states
system.mem_ctrls_1.memoryStateTime::ACT_PDN            0                       # Time in different power states
system.cpu_voltage_domain.voltage                   1                       # Voltage in Volts
system.cpu_clk_domain.clock                       500                       # Clock period in ticks
system.cpu0.apic_clk_domain.clock                8000                       # Clock period in ticks
system.cpu0.numCycles                      4814293667                       # number of cpu cycles simulated
system.cpu0.numWorkItemsStarted                     0                       # number of work items this cpu started
system.cpu0.numWorkItemsCompleted                   0                       # number of work items this cpu completed
system.cpu0.kern.inst.arm                           0                       # number of arm instructions executed
system.cpu0.kern.inst.quiesce                       0                       # number of quiesce instructions executed
system.cpu0.committedInsts                    3976794                       # Number of instructions committed
system.cpu0.committedOps                      8221548                       # Number of ops (including micro ops) committed
system.cpu0.num_int_alu_accesses              7996696                       # Number of integer alu accesses
system.cpu0.num_fp_alu_accesses                   372                       # Number of float alu accesses
system.cpu0.num_func_calls                     192900                       # number of times a function call or return occured
system.cpu0.num_conditional_control_insts       632776                       # number of instructions that are conditional controls
system.cpu0.num_int_insts                     7996696                       # number of integer instructions
system.cpu0.num_fp_insts                          372                       # number of float instructions
system.cpu0.num_int_register_reads           15630979                       # number of times the integer registers were read
system.cpu0.num_int_register_writes           6588188                       # number of times the integer registers were written
system.cpu0.num_fp_register_reads                 596                       # number of times the floating registers were read
system.cpu0.num_fp_register_writes                261                       # number of times the floating registers were written
system.cpu0.num_cc_register_reads             4915379                       # number of times the CC registers were read
system.cpu0.num_cc_register_writes            3022577                       # number of times the CC registers were written
system.cpu0.num_mem_refs                      1689819                       # number of memory refs
system.cpu0.num_load_insts                    1045173                       # Number of load instructions
system.cpu0.num_store_insts                    644646                       # Number of store instructions
system.cpu0.num_idle_cycles              4792309006.594279                       # Number of idle cycles
system.cpu0.num_busy_cycles              21984660.405721                       # Number of busy cycles
system.cpu0.not_idle_fraction                0.004567                       # Percentage of non-idle cycles
system.cpu0.idle_fraction                    0.995433                       # Percentage of idle cycles
system.cpu0.Branches                           891376                       # Number of branches fetched
system.cpu0.op_class::No_OpClass                82830      1.01%      1.01% # Class of executed instruction
system.cpu0.op_class::IntAlu                  6412794     78.00%     79.01% # Class of executed instruction
system.cpu0.op_class::IntMult                    9531      0.12%     79.12% # Class of executed instruction
system.cpu0.op_class::IntDiv                    26417      0.32%     79.44% # Class of executed instruction
system.cpu0.op_class::FloatAdd                    244      0.00%     79.45% # Class of executed instruction
system.cpu0.op_class::FloatCmp                      0      0.00%     79.45% # Class of executed instruction
system.cpu0.op_class::FloatCvt                      0      0.00%     79.45% # Class of executed instruction
system.cpu0.op_class::FloatMult                     0      0.00%     79.45% # Class of executed instruction
system.cpu0.op_class::FloatDiv                      0      0.00%     79.45% # Class of executed instruction
system.cpu0.op_class::FloatSqrt                     0      0.00%     79.45% # Class of executed instruction
system.cpu0.op_class::SimdAdd                       0      0.00%     79.45% # Class of executed instruction
system.cpu0.op_class::SimdAddAcc                    0      0.00%     79.45% # Class of executed instruction
system.cpu0.op_class::SimdAlu                       0      0.00%     79.45% # Class of executed instruction
system.cpu0.op_class::SimdCmp                       0      0.00%     79.45% # Class of executed instruction
system.cpu0.op_class::SimdCvt                       0      0.00%     79.45% # Class of executed instruction
system.cpu0.op_class::SimdMisc                      0      0.00%     79.45% # Class of executed instruction
system.cpu0.op_class::SimdMult                      0      0.00%     79.45% # Class of executed instruction
system.cpu0.op_class::SimdMultAcc                   0      0.00%     79.45% # Class of executed instruction
system.cpu0.op_class::SimdShift                     0      0.00%     79.45% # Class of executed instruction
system.cpu0.op_class::SimdShiftAcc                  0      0.00%     79.45% # Class of executed instruction
system.cpu0.op_class::SimdSqrt                      0      0.00%     79.45% # Class of executed instruction
system.cpu0.op_class::SimdFloatAdd                  0      0.00%     79.45% # Class of executed instruction
system.cpu0.op_class::SimdFloatAlu                  0      0.00%     79.45% # Class of executed instruction
system.cpu0.op_class::SimdFloatCmp                  0      0.00%     79.45% # Class of executed instruction
system.cpu0.op_class::SimdFloatCvt                  0      0.00%     79.45% # Class of executed instruction
system.cpu0.op_class::SimdFloatDiv                  0      0.00%     79.45% # Class of executed instruction
system.cpu0.op_class::SimdFloatMisc                 0      0.00%     79.45% # Class of executed instruction
system.cpu0.op_class::SimdFloatMult                 0      0.00%     79.45% # Class of executed instruction
system.cpu0.op_class::SimdFloatMultAcc              0      0.00%     79.45% # Class of executed instruction
system.cpu0.op_class::SimdFloatSqrt                 0      0.00%     79.45% # Class of executed instruction
system.cpu0.op_class::MemRead                 1045173     12.71%     92.16% # Class of executed instruction
system.cpu0.op_class::MemWrite                 644646      7.84%    100.00% # Class of executed instruction
system.cpu0.op_class::IprAccess                     0      0.00%    100.00% # Class of executed instruction
system.cpu0.op_class::InstPrefetch                  0      0.00%    100.00% # Class of executed instruction
system.cpu0.op_class::total                   8221635                       # Class of executed instruction
system.cpu1.apic_clk_domain.clock                8000                       # Clock period in ticks
system.cpu1.numCycles                      4806723594                       # number of cpu cycles simulated
system.cpu1.numWorkItemsStarted                     0                       # number of work items this cpu started
system.cpu1.numWorkItemsCompleted                   0                       # number of work items this cpu completed
system.cpu1.kern.inst.arm                           0                       # number of arm instructions executed
system.cpu1.kern.inst.quiesce                       0                       # number of quiesce instructions executed
system.cpu1.committedInsts                 1297735416                       # Number of instructions committed
system.cpu1.committedOps                   2349197186                       # Number of ops (including micro ops) committed
system.cpu1.num_int_alu_accesses           1507242934                       # Number of integer alu accesses
system.cpu1.num_fp_alu_accesses            1130267123                       # Number of float alu accesses
system.cpu1.num_func_calls                     804319                       # number of times a function call or return occured
system.cpu1.num_conditional_control_insts    160946448                       # number of instructions that are conditional controls
system.cpu1.num_int_insts                  1507242934                       # number of integer instructions
system.cpu1.num_fp_insts                   1130267123                       # number of float instructions
system.cpu1.num_int_register_reads         2941089070                       # number of times the integer registers were read
system.cpu1.num_int_register_writes        1034221150                       # number of times the integer registers were written
system.cpu1.num_fp_register_reads          1382457446                       # number of times the floating registers were read
system.cpu1.num_fp_register_writes         1075379363                       # number of times the floating registers were written
system.cpu1.num_cc_register_reads           939446667                       # number of times the CC registers were read
system.cpu1.num_cc_register_writes          528264803                       # number of times the CC registers were written
system.cpu1.num_mem_refs                    388407466                       # number of memory refs
system.cpu1.num_load_insts                  350001600                       # Number of load instructions
system.cpu1.num_store_insts                  38405866                       # Number of store instructions
system.cpu1.num_idle_cycles              24417953.940234                       # Number of idle cycles
system.cpu1.num_busy_cycles              4782305640.059767                       # Number of busy cycles
system.cpu1.not_idle_fraction                0.994920                       # Percentage of non-idle cycles
system.cpu1.idle_fraction                    0.005080                       # Percentage of idle cycles
system.cpu1.Branches                        166343496                       # Number of branches fetched
system.cpu1.op_class::No_OpClass              3904246      0.17%      0.17% # Class of executed instruction
system.cpu1.op_class::IntAlu               1229209588     52.32%     52.49% # Class of executed instruction
system.cpu1.op_class::IntMult                 4268995      0.18%     52.67% # Class of executed instruction
system.cpu1.op_class::IntDiv                      917      0.00%     52.67% # Class of executed instruction
system.cpu1.op_class::FloatAdd              723422302     30.79%     83.47% # Class of executed instruction
system.cpu1.op_class::FloatCmp                      0      0.00%     83.47% # Class of executed instruction
system.cpu1.op_class::FloatCvt                      0      0.00%     83.47% # Class of executed instruction
system.cpu1.op_class::FloatMult                     0      0.00%     83.47% # Class of executed instruction
system.cpu1.op_class::FloatDiv                      0      0.00%     83.47% # Class of executed instruction
system.cpu1.op_class::FloatSqrt                     0      0.00%     83.47% # Class of executed instruction
system.cpu1.op_class::SimdAdd                       0      0.00%     83.47% # Class of executed instruction
system.cpu1.op_class::SimdAddAcc                    0      0.00%     83.47% # Class of executed instruction
system.cpu1.op_class::SimdAlu                       0      0.00%     83.47% # Class of executed instruction
system.cpu1.op_class::SimdCmp                       0      0.00%     83.47% # Class of executed instruction
system.cpu1.op_class::SimdCvt                       0      0.00%     83.47% # Class of executed instruction
system.cpu1.op_class::SimdMisc                      0      0.00%     83.47% # Class of executed instruction
system.cpu1.op_class::SimdMult                      0      0.00%     83.47% # Class of executed instruction
system.cpu1.op_class::SimdMultAcc                   0      0.00%     83.47% # Class of executed instruction
system.cpu1.op_class::SimdShift                     0      0.00%     83.47% # Class of executed instruction
system.cpu1.op_class::SimdShiftAcc                  0      0.00%     83.47% # Class of executed instruction
system.cpu1.op_class::SimdSqrt                      0      0.00%     83.47% # Class of executed instruction
system.cpu1.op_class::SimdFloatAdd                  0      0.00%     83.47% # Class of executed instruction
system.cpu1.op_class::SimdFloatAlu                  0      0.00%     83.47% # Class of executed instruction
system.cpu1.op_class::SimdFloatCmp                  0      0.00%     83.47% # Class of executed instruction
system.cpu1.op_class::SimdFloatCvt                  0      0.00%     83.47% # Class of executed instruction
system.cpu1.op_class::SimdFloatDiv                  0      0.00%     83.47% # Class of executed instruction
system.cpu1.op_class::SimdFloatMisc                 0      0.00%     83.47% # Class of executed instruction
system.cpu1.op_class::SimdFloatMult                 0      0.00%     83.47% # Class of executed instruction
system.cpu1.op_class::SimdFloatMultAcc              0      0.00%     83.47% # Class of executed instruction
system.cpu1.op_class::SimdFloatSqrt                 0      0.00%     83.47% # Class of executed instruction
system.cpu1.op_class::MemRead               350001600     14.90%     98.37% # Class of executed instruction
system.cpu1.op_class::MemWrite               38405866      1.63%    100.00% # Class of executed instruction
system.cpu1.op_class::IprAccess                     0      0.00%    100.00% # Class of executed instruction
system.cpu1.op_class::InstPrefetch                  0      0.00%    100.00% # Class of executed instruction
system.cpu1.op_class::total                2349213514                       # Class of executed instruction
system.cpu2.apic_clk_domain.clock                8000                       # Clock period in ticks
system.cpu2.numCycles                      4810222124                       # number of cpu cycles simulated
system.cpu2.numWorkItemsStarted                     0                       # number of work items this cpu started
system.cpu2.numWorkItemsCompleted                   0                       # number of work items this cpu completed
system.cpu2.kern.inst.arm                           0                       # number of arm instructions executed
system.cpu2.kern.inst.quiesce                       0                       # number of quiesce instructions executed
system.cpu2.committedInsts                    4766806                       # Number of instructions committed
system.cpu2.committedOps                      9586979                       # Number of ops (including micro ops) committed
system.cpu2.num_int_alu_accesses              9414850                       # Number of integer alu accesses
system.cpu2.num_fp_alu_accesses                  1778                       # Number of float alu accesses
system.cpu2.num_func_calls                     248036                       # number of times a function call or return occured
system.cpu2.num_conditional_control_insts       822152                       # number of instructions that are conditional controls
system.cpu2.num_int_insts                     9414850                       # number of integer instructions
system.cpu2.num_fp_insts                         1778                       # number of float instructions
system.cpu2.num_int_register_reads           18641732                       # number of times the integer registers were read
system.cpu2.num_int_register_writes           7664771                       # number of times the integer registers were written
system.cpu2.num_fp_register_reads                2988                       # number of times the floating registers were read
system.cpu2.num_fp_register_writes               1416                       # number of times the floating registers were written
system.cpu2.num_cc_register_reads             6139388                       # number of times the CC registers were read
system.cpu2.num_cc_register_writes            3263091                       # number of times the CC registers were written
system.cpu2.num_mem_refs                      2138202                       # number of memory refs
system.cpu2.num_load_insts                    1384663                       # Number of load instructions
system.cpu2.num_store_insts                    753539                       # Number of store instructions
system.cpu2.num_idle_cycles              4787046032.697104                       # Number of idle cycles
system.cpu2.num_busy_cycles              23176091.302897                       # Number of busy cycles
system.cpu2.not_idle_fraction                0.004818                       # Percentage of non-idle cycles
system.cpu2.idle_fraction                    0.995182                       # Percentage of idle cycles
system.cpu2.Branches                          1116694                       # Number of branches fetched
system.cpu2.op_class::No_OpClass                75068      0.78%      0.78% # Class of executed instruction
system.cpu2.op_class::IntAlu                  7337992     76.54%     77.32% # Class of executed instruction
system.cpu2.op_class::IntMult                    9000      0.09%     77.42% # Class of executed instruction
system.cpu2.op_class::IntDiv                    25464      0.27%     77.68% # Class of executed instruction
system.cpu2.op_class::FloatAdd                   1344      0.01%     77.70% # Class of executed instruction
system.cpu2.op_class::FloatCmp                      0      0.00%     77.70% # Class of executed instruction
system.cpu2.op_class::FloatCvt                      0      0.00%     77.70% # Class of executed instruction
system.cpu2.op_class::FloatMult                     0      0.00%     77.70% # Class of executed instruction
system.cpu2.op_class::FloatDiv                      0      0.00%     77.70% # Class of executed instruction
system.cpu2.op_class::FloatSqrt                     0      0.00%     77.70% # Class of executed instruction
system.cpu2.op_class::SimdAdd                       0      0.00%     77.70% # Class of executed instruction
system.cpu2.op_class::SimdAddAcc                    0      0.00%     77.70% # Class of executed instruction
system.cpu2.op_class::SimdAlu                       0      0.00%     77.70% # Class of executed instruction
system.cpu2.op_class::SimdCmp                       0      0.00%     77.70% # Class of executed instruction
system.cpu2.op_class::SimdCvt                       0      0.00%     77.70% # Class of executed instruction
system.cpu2.op_class::SimdMisc                      0      0.00%     77.70% # Class of executed instruction
system.cpu2.op_class::SimdMult                      0      0.00%     77.70% # Class of executed instruction
system.cpu2.op_class::SimdMultAcc                   0      0.00%     77.70% # Class of executed instruction
system.cpu2.op_class::SimdShift                     0      0.00%     77.70% # Class of executed instruction
system.cpu2.op_class::SimdShiftAcc                  0      0.00%     77.70% # Class of executed instruction
system.cpu2.op_class::SimdSqrt                      0      0.00%     77.70% # Class of executed instruction
system.cpu2.op_class::SimdFloatAdd                  0      0.00%     77.70% # Class of executed instruction
system.cpu2.op_class::SimdFloatAlu                  0      0.00%     77.70% # Class of executed instruction
system.cpu2.op_class::SimdFloatCmp                  0      0.00%     77.70% # Class of executed instruction
system.cpu2.op_class::SimdFloatCvt                  0      0.00%     77.70% # Class of executed instruction
system.cpu2.op_class::SimdFloatDiv                  0      0.00%     77.70% # Class of executed instruction
system.cpu2.op_class::SimdFloatMisc                 0      0.00%     77.70% # Class of executed instruction
system.cpu2.op_class::SimdFloatMult                 0      0.00%     77.70% # Class of executed instruction
system.cpu2.op_class::SimdFloatMultAcc              0      0.00%     77.70% # Class of executed instruction
system.cpu2.op_class::SimdFloatSqrt                 0      0.00%     77.70% # Class of executed instruction
system.cpu2.op_class::MemRead                 1384663     14.44%     92.14% # Class of executed instruction
system.cpu2.op_class::MemWrite                 753539      7.86%    100.00% # Class of executed instruction
system.cpu2.op_class::IprAccess                     0      0.00%    100.00% # Class of executed instruction
system.cpu2.op_class::InstPrefetch                  0      0.00%    100.00% # Class of executed instruction
system.cpu2.op_class::total                   9587070                       # Class of executed instruction
system.cpu3.apic_clk_domain.clock                8000                       # Clock period in ticks
system.cpu3.numCycles                      4813169325                       # number of cpu cycles simulated
system.cpu3.numWorkItemsStarted                     0                       # number of work items this cpu started
system.cpu3.numWorkItemsCompleted                   0                       # number of work items this cpu completed
system.cpu3.kern.inst.arm                           0                       # number of arm instructions executed
system.cpu3.kern.inst.quiesce                       0                       # number of quiesce instructions executed
system.cpu3.committedInsts                    1999565                       # Number of instructions committed
system.cpu3.committedOps                      4259411                       # Number of ops (including micro ops) committed
system.cpu3.num_int_alu_accesses              4170676                       # Number of integer alu accesses
system.cpu3.num_fp_alu_accesses                    39                       # Number of float alu accesses
system.cpu3.num_func_calls                     112220                       # number of times a function call or return occured
system.cpu3.num_conditional_control_insts       329876                       # number of instructions that are conditional controls
system.cpu3.num_int_insts                     4170676                       # number of integer instructions
system.cpu3.num_fp_insts                           39                       # number of float instructions
system.cpu3.num_int_register_reads            8354331                       # number of times the integer registers were read
system.cpu3.num_int_register_writes           3446003                       # number of times the integer registers were written
system.cpu3.num_fp_register_reads                  63                       # number of times the floating registers were read
system.cpu3.num_fp_register_writes                 31                       # number of times the floating registers were written
system.cpu3.num_cc_register_reads             2547490                       # number of times the CC registers were read
system.cpu3.num_cc_register_writes            1306583                       # number of times the CC registers were written
system.cpu3.num_mem_refs                       971220                       # number of memory refs
system.cpu3.num_load_insts                     604241                       # Number of load instructions
system.cpu3.num_store_insts                    366979                       # Number of store instructions
system.cpu3.num_idle_cycles              4802499419.661022                       # Number of idle cycles
system.cpu3.num_busy_cycles              10669905.338978                       # Number of busy cycles
system.cpu3.not_idle_fraction                0.002217                       # Percentage of non-idle cycles
system.cpu3.idle_fraction                    0.997783                       # Percentage of idle cycles
system.cpu3.Branches                           478292                       # Number of branches fetched
system.cpu3.op_class::No_OpClass                73527      1.73%      1.73% # Class of executed instruction
system.cpu3.op_class::IntAlu                  3180113     74.66%     76.39% # Class of executed instruction
system.cpu3.op_class::IntMult                    8049      0.19%     76.58% # Class of executed instruction
system.cpu3.op_class::IntDiv                    26494      0.62%     77.20% # Class of executed instruction
system.cpu3.op_class::FloatAdd                     30      0.00%     77.20% # Class of executed instruction
system.cpu3.op_class::FloatCmp                      0      0.00%     77.20% # Class of executed instruction
system.cpu3.op_class::FloatCvt                      0      0.00%     77.20% # Class of executed instruction
system.cpu3.op_class::FloatMult                     0      0.00%     77.20% # Class of executed instruction
system.cpu3.op_class::FloatDiv                      0      0.00%     77.20% # Class of executed instruction
system.cpu3.op_class::FloatSqrt                     0      0.00%     77.20% # Class of executed instruction
system.cpu3.op_class::SimdAdd                       0      0.00%     77.20% # Class of executed instruction
system.cpu3.op_class::SimdAddAcc                    0      0.00%     77.20% # Class of executed instruction
system.cpu3.op_class::SimdAlu                       0      0.00%     77.20% # Class of executed instruction
system.cpu3.op_class::SimdCmp                       0      0.00%     77.20% # Class of executed instruction
system.cpu3.op_class::SimdCvt                       0      0.00%     77.20% # Class of executed instruction
system.cpu3.op_class::SimdMisc                      0      0.00%     77.20% # Class of executed instruction
system.cpu3.op_class::SimdMult                      0      0.00%     77.20% # Class of executed instruction
system.cpu3.op_class::SimdMultAcc                   0      0.00%     77.20% # Class of executed instruction
system.cpu3.op_class::SimdShift                     0      0.00%     77.20% # Class of executed instruction
system.cpu3.op_class::SimdShiftAcc                  0      0.00%     77.20% # Class of executed instruction
system.cpu3.op_class::SimdSqrt                      0      0.00%     77.20% # Class of executed instruction
system.cpu3.op_class::SimdFloatAdd                  0      0.00%     77.20% # Class of executed instruction
system.cpu3.op_class::SimdFloatAlu                  0      0.00%     77.20% # Class of executed instruction
system.cpu3.op_class::SimdFloatCmp                  0      0.00%     77.20% # Class of executed instruction
system.cpu3.op_class::SimdFloatCvt                  0      0.00%     77.20% # Class of executed instruction
system.cpu3.op_class::SimdFloatDiv                  0      0.00%     77.20% # Class of executed instruction
system.cpu3.op_class::SimdFloatMisc                 0      0.00%     77.20% # Class of executed instruction
system.cpu3.op_class::SimdFloatMult                 0      0.00%     77.20% # Class of executed instruction
system.cpu3.op_class::SimdFloatMultAcc              0      0.00%     77.20% # Class of executed instruction
system.cpu3.op_class::SimdFloatSqrt                 0      0.00%     77.20% # Class of executed instruction
system.cpu3.op_class::MemRead                  604241     14.19%     91.38% # Class of executed instruction
system.cpu3.op_class::MemWrite                 366979      8.62%    100.00% # Class of executed instruction
system.cpu3.op_class::IprAccess                     0      0.00%    100.00% # Class of executed instruction
system.cpu3.op_class::InstPrefetch                  0      0.00%    100.00% # Class of executed instruction
system.cpu3.op_class::total                   4259433                       # Class of executed instruction
system.iobus.trans_dist::ReadReq                  411                       # Transaction distribution
system.iobus.trans_dist::ReadResp                 411                       # Transaction distribution
system.iobus.trans_dist::WriteReq                3129                       # Transaction distribution
system.iobus.trans_dist::WriteResp               3129                       # Transaction distribution
system.iobus.trans_dist::MessageReq                56                       # Transaction distribution
system.iobus.trans_dist::MessageResp               56                       # Transaction distribution
system.iobus.pkt_count_system.pc.south_bridge.io_apic.int_master::system.ruby.l0_cntrl0.sequencer.pio-slave-port           22                       # Packet count per connected master and slave (bytes)
system.iobus.pkt_count_system.pc.south_bridge.io_apic.int_master::system.ruby.l0_cntrl1.sequencer.pio-slave-port           22                       # Packet count per connected master and slave (bytes)
system.iobus.pkt_count_system.pc.south_bridge.io_apic.int_master::system.ruby.l0_cntrl2.sequencer.pio-slave-port           22                       # Packet count per connected master and slave (bytes)
system.iobus.pkt_count_system.pc.south_bridge.io_apic.int_master::system.ruby.l0_cntrl3.sequencer.pio-slave-port           24                       # Packet count per connected master and slave (bytes)
system.iobus.pkt_count_system.pc.south_bridge.io_apic.int_master::total           90                       # Packet count per connected master and slave (bytes)
system.iobus.pkt_count_system.ruby.l0_cntrl0.sequencer.mem-master-port::system.pc.south_bridge.ide.pio          460                       # Packet count per connected master and slave (bytes)
system.iobus.pkt_count_system.ruby.l0_cntrl0.sequencer.mem-master-port::system.pc.south_bridge.io_apic.pio            6                       # Packet count per connected master and slave (bytes)
system.iobus.pkt_count_system.ruby.l0_cntrl0.sequencer.mem-master-port::system.pc.com_1.pio          174                       # Packet count per connected master and slave (bytes)
system.iobus.pkt_count_system.ruby.l0_cntrl0.sequencer.mem-master-port::system.ruby.l0_cntrl0.sequencer.pio-slave-port         1256                       # Packet count per connected master and slave (bytes)
system.iobus.pkt_count_system.ruby.l0_cntrl0.sequencer.mem-master-port::system.ruby.l0_cntrl1.sequencer.pio-slave-port            6                       # Packet count per connected master and slave (bytes)
system.iobus.pkt_count_system.ruby.l0_cntrl0.sequencer.mem-master-port::system.ruby.l0_cntrl3.sequencer.pio-slave-port            2                       # Packet count per connected master and slave (bytes)
system.iobus.pkt_count_system.ruby.l0_cntrl0.sequencer.mem-master-port::total         1904                       # Packet count per connected master and slave (bytes)
system.iobus.pkt_count_system.ruby.l0_cntrl1.sequencer.mem-master-port::system.pc.south_bridge.ide.pio          596                       # Packet count per connected master and slave (bytes)
system.iobus.pkt_count_system.ruby.l0_cntrl1.sequencer.mem-master-port::system.pc.south_bridge.io_apic.pio            8                       # Packet count per connected master and slave (bytes)
system.iobus.pkt_count_system.ruby.l0_cntrl1.sequencer.mem-master-port::system.ruby.l0_cntrl0.sequencer.pio-slave-port            4                       # Packet count per connected master and slave (bytes)
system.iobus.pkt_count_system.ruby.l0_cntrl1.sequencer.mem-master-port::system.ruby.l0_cntrl1.sequencer.pio-slave-port         1250                       # Packet count per connected master and slave (bytes)
system.iobus.pkt_count_system.ruby.l0_cntrl1.sequencer.mem-master-port::system.ruby.l0_cntrl2.sequencer.pio-slave-port            2                       # Packet count per connected master and slave (bytes)
system.iobus.pkt_count_system.ruby.l0_cntrl1.sequencer.mem-master-port::total         1860                       # Packet count per connected master and slave (bytes)
system.iobus.pkt_count_system.ruby.l0_cntrl2.sequencer.mem-master-port::system.pc.south_bridge.ide.pio          392                       # Packet count per connected master and slave (bytes)
system.iobus.pkt_count_system.ruby.l0_cntrl2.sequencer.mem-master-port::system.pc.south_bridge.io_apic.pio            8                       # Packet count per connected master and slave (bytes)
system.iobus.pkt_count_system.ruby.l0_cntrl2.sequencer.mem-master-port::system.pc.com_1.pio            2                       # Packet count per connected master and slave (bytes)
system.iobus.pkt_count_system.ruby.l0_cntrl2.sequencer.mem-master-port::system.ruby.l0_cntrl0.sequencer.pio-slave-port            2                       # Packet count per connected master and slave (bytes)
system.iobus.pkt_count_system.ruby.l0_cntrl2.sequencer.mem-master-port::system.ruby.l0_cntrl1.sequencer.pio-slave-port            2                       # Packet count per connected master and slave (bytes)
system.iobus.pkt_count_system.ruby.l0_cntrl2.sequencer.mem-master-port::system.ruby.l0_cntrl2.sequencer.pio-slave-port         1246                       # Packet count per connected master and slave (bytes)
system.iobus.pkt_count_system.ruby.l0_cntrl2.sequencer.mem-master-port::system.ruby.l0_cntrl3.sequencer.pio-slave-port            2                       # Packet count per connected master and slave (bytes)
system.iobus.pkt_count_system.ruby.l0_cntrl2.sequencer.mem-master-port::total         1654                       # Packet count per connected master and slave (bytes)
system.iobus.pkt_count_system.ruby.l0_cntrl3.sequencer.mem-master-port::system.pc.south_bridge.ide.pio          438                       # Packet count per connected master and slave (bytes)
system.iobus.pkt_count_system.ruby.l0_cntrl3.sequencer.mem-master-port::system.pc.south_bridge.io_apic.pio            8                       # Packet count per connected master and slave (bytes)
system.iobus.pkt_count_system.ruby.l0_cntrl3.sequencer.mem-master-port::system.ruby.l0_cntrl0.sequencer.pio-slave-port            2                       # Packet count per connected master and slave (bytes)
system.iobus.pkt_count_system.ruby.l0_cntrl3.sequencer.mem-master-port::system.ruby.l0_cntrl3.sequencer.pio-slave-port         1236                       # Packet count per connected master and slave (bytes)
system.iobus.pkt_count_system.ruby.l0_cntrl3.sequencer.mem-master-port::total         1684                       # Packet count per connected master and slave (bytes)
system.iobus.pkt_count::total                    7192                       # Packet count per connected master and slave (bytes)
system.iobus.pkt_size_system.pc.south_bridge.io_apic.int_master::system.ruby.l0_cntrl0.sequencer.pio-slave-port           44                       # Cumulative packet size per connected master and slave (bytes)
system.iobus.pkt_size_system.pc.south_bridge.io_apic.int_master::system.ruby.l0_cntrl1.sequencer.pio-slave-port           44                       # Cumulative packet size per connected master and slave (bytes)
system.iobus.pkt_size_system.pc.south_bridge.io_apic.int_master::system.ruby.l0_cntrl2.sequencer.pio-slave-port           44                       # Cumulative packet size per connected master and slave (bytes)
system.iobus.pkt_size_system.pc.south_bridge.io_apic.int_master::system.ruby.l0_cntrl3.sequencer.pio-slave-port           48                       # Cumulative packet size per connected master and slave (bytes)
system.iobus.pkt_size_system.pc.south_bridge.io_apic.int_master::total          180                       # Cumulative packet size per connected master and slave (bytes)
system.iobus.pkt_size_system.ruby.l0_cntrl0.sequencer.mem-master-port::system.pc.south_bridge.ide.pio          260                       # Cumulative packet size per connected master and slave (bytes)
system.iobus.pkt_size_system.ruby.l0_cntrl0.sequencer.mem-master-port::system.pc.south_bridge.io_apic.pio           12                       # Cumulative packet size per connected master and slave (bytes)
system.iobus.pkt_size_system.ruby.l0_cntrl0.sequencer.mem-master-port::system.pc.com_1.pio           87                       # Cumulative packet size per connected master and slave (bytes)
system.iobus.pkt_size_system.ruby.l0_cntrl0.sequencer.mem-master-port::system.ruby.l0_cntrl0.sequencer.pio-slave-port         2512                       # Cumulative packet size per connected master and slave (bytes)
system.iobus.pkt_size_system.ruby.l0_cntrl0.sequencer.mem-master-port::system.ruby.l0_cntrl1.sequencer.pio-slave-port           12                       # Cumulative packet size per connected master and slave (bytes)
system.iobus.pkt_size_system.ruby.l0_cntrl0.sequencer.mem-master-port::system.ruby.l0_cntrl3.sequencer.pio-slave-port            4                       # Cumulative packet size per connected master and slave (bytes)
system.iobus.pkt_size_system.ruby.l0_cntrl0.sequencer.mem-master-port::total         2887                       # Cumulative packet size per connected master and slave (bytes)
system.iobus.pkt_size_system.ruby.l0_cntrl1.sequencer.mem-master-port::system.pc.south_bridge.ide.pio          340                       # Cumulative packet size per connected master and slave (bytes)
system.iobus.pkt_size_system.ruby.l0_cntrl1.sequencer.mem-master-port::system.pc.south_bridge.io_apic.pio           16                       # Cumulative packet size per connected master and slave (bytes)
system.iobus.pkt_size_system.ruby.l0_cntrl1.sequencer.mem-master-port::system.ruby.l0_cntrl0.sequencer.pio-slave-port            8                       # Cumulative packet size per connected master and slave (bytes)
system.iobus.pkt_size_system.ruby.l0_cntrl1.sequencer.mem-master-port::system.ruby.l0_cntrl1.sequencer.pio-slave-port         2500                       # Cumulative packet size per connected master and slave (bytes)
system.iobus.pkt_size_system.ruby.l0_cntrl1.sequencer.mem-master-port::system.ruby.l0_cntrl2.sequencer.pio-slave-port            4                       # Cumulative packet size per connected master and slave (bytes)
system.iobus.pkt_size_system.ruby.l0_cntrl1.sequencer.mem-master-port::total         2868                       # Cumulative packet size per connected master and slave (bytes)
system.iobus.pkt_size_system.ruby.l0_cntrl2.sequencer.mem-master-port::system.pc.south_bridge.ide.pio          220                       # Cumulative packet size per connected master and slave (bytes)
system.iobus.pkt_size_system.ruby.l0_cntrl2.sequencer.mem-master-port::system.pc.south_bridge.io_apic.pio           16                       # Cumulative packet size per connected master and slave (bytes)
system.iobus.pkt_size_system.ruby.l0_cntrl2.sequencer.mem-master-port::system.pc.com_1.pio            1                       # Cumulative packet size per connected master and slave (bytes)
system.iobus.pkt_size_system.ruby.l0_cntrl2.sequencer.mem-master-port::system.ruby.l0_cntrl0.sequencer.pio-slave-port            4                       # Cumulative packet size per connected master and slave (bytes)
system.iobus.pkt_size_system.ruby.l0_cntrl2.sequencer.mem-master-port::system.ruby.l0_cntrl1.sequencer.pio-slave-port            4                       # Cumulative packet size per connected master and slave (bytes)
system.iobus.pkt_size_system.ruby.l0_cntrl2.sequencer.mem-master-port::system.ruby.l0_cntrl2.sequencer.pio-slave-port         2492                       # Cumulative packet size per connected master and slave (bytes)
system.iobus.pkt_size_system.ruby.l0_cntrl2.sequencer.mem-master-port::system.ruby.l0_cntrl3.sequencer.pio-slave-port            4                       # Cumulative packet size per connected master and slave (bytes)
system.iobus.pkt_size_system.ruby.l0_cntrl2.sequencer.mem-master-port::total         2741                       # Cumulative packet size per connected master and slave (bytes)
system.iobus.pkt_size_system.ruby.l0_cntrl3.sequencer.mem-master-port::system.pc.south_bridge.ide.pio          246                       # Cumulative packet size per connected master and slave (bytes)
system.iobus.pkt_size_system.ruby.l0_cntrl3.sequencer.mem-master-port::system.pc.south_bridge.io_apic.pio           16                       # Cumulative packet size per connected master and slave (bytes)
system.iobus.pkt_size_system.ruby.l0_cntrl3.sequencer.mem-master-port::system.ruby.l0_cntrl0.sequencer.pio-slave-port            4                       # Cumulative packet size per connected master and slave (bytes)
system.iobus.pkt_size_system.ruby.l0_cntrl3.sequencer.mem-master-port::system.ruby.l0_cntrl3.sequencer.pio-slave-port         2472                       # Cumulative packet size per connected master and slave (bytes)
system.iobus.pkt_size_system.ruby.l0_cntrl3.sequencer.mem-master-port::total         2738                       # Cumulative packet size per connected master and slave (bytes)
system.iobus.pkt_size::total                    11414                       # Cumulative packet size per connected master and slave (bytes)
system.iobus.reqLayer2.occupancy              1637000                       # Layer occupancy (ticks)
system.iobus.reqLayer2.utilization                0.0                       # Layer utilization (%)
system.iobus.reqLayer8.occupancy                27496                       # Layer occupancy (ticks)
system.iobus.reqLayer8.utilization                0.0                       # Layer utilization (%)
system.iobus.reqLayer12.occupancy              114000                       # Layer occupancy (ticks)
system.iobus.reqLayer12.utilization               0.0                       # Layer utilization (%)
system.iobus.reqLayer17.occupancy             1540489                       # Layer occupancy (ticks)
system.iobus.reqLayer17.utilization               0.0                       # Layer utilization (%)
system.iobus.reqLayer18.occupancy             1707473                       # Layer occupancy (ticks)
system.iobus.reqLayer18.utilization               0.0                       # Layer utilization (%)
system.iobus.reqLayer19.occupancy             1543487                       # Layer occupancy (ticks)
system.iobus.reqLayer19.utilization               0.0                       # Layer utilization (%)
system.iobus.reqLayer20.occupancy             1545988                       # Layer occupancy (ticks)
system.iobus.reqLayer20.utilization               0.0                       # Layer utilization (%)
system.iobus.respLayer0.occupancy               78459                       # Layer occupancy (ticks)
system.iobus.respLayer0.utilization               0.0                       # Layer utilization (%)
system.iobus.respLayer2.occupancy             1416500                       # Layer occupancy (ticks)
system.iobus.respLayer2.utilization               0.0                       # Layer utilization (%)
system.iobus.respLayer4.occupancy             1344000                       # Layer occupancy (ticks)
system.iobus.respLayer4.utilization               0.0                       # Layer utilization (%)
system.iobus.respLayer6.occupancy             1215500                       # Layer occupancy (ticks)
system.iobus.respLayer6.utilization               0.0                       # Layer utilization (%)
system.iobus.respLayer8.occupancy             1234000                       # Layer occupancy (ticks)
system.iobus.respLayer8.utilization               0.0                       # Layer utilization (%)
system.pc.south_bridge.ide.disks.dma_read_full_pages          357                       # Number of full page size DMA reads (not PRD).
system.pc.south_bridge.ide.disks.dma_read_bytes      1462272                       # Number of bytes transfered via DMA reads (not PRD).
system.pc.south_bridge.ide.disks.dma_read_txs          357                       # Number of DMA read transactions (not PRD).
system.pc.south_bridge.ide.disks.dma_write_full_pages            0                       # Number of full page size DMA writes.
system.pc.south_bridge.ide.disks.dma_write_bytes            0                       # Number of bytes transfered via DMA writes.
system.pc.south_bridge.ide.disks.dma_write_txs            0                       # Number of DMA write transactions.
system.ruby.clk_domain.clock                      500                       # Clock period in ticks
system.ruby.delayHist::bucket_size                  4                       # delay histogram for all message
system.ruby.delayHist::max_bucket                  39                       # delay histogram for all message
system.ruby.delayHist::samples               38950855                       # delay histogram for all message
system.ruby.delayHist::mean                  0.219684                       # delay histogram for all message
system.ruby.delayHist::stdev                 1.307574                       # delay histogram for all message
system.ruby.delayHist                    |    37883957     97.26%     97.26% |        1790      0.00%     97.27% |     1064350      2.73%    100.00% |         163      0.00%    100.00% |         565      0.00%    100.00% |           6      0.00%    100.00% |          24      0.00%    100.00% |           0      0.00%    100.00% |           0      0.00%    100.00% |           0      0.00%    100.00% # delay histogram for all message
system.ruby.delayHist::total                 38950855                       # delay histogram for all message
system.ruby.outstanding_req_hist_seqr::bucket_size            1                      
system.ruby.outstanding_req_hist_seqr::max_bucket            9                      
system.ruby.outstanding_req_hist_seqr::samples   2274470524                      
system.ruby.outstanding_req_hist_seqr::mean     1.001962                      
system.ruby.outstanding_req_hist_seqr::gmean     1.001361                      
system.ruby.outstanding_req_hist_seqr::stdev     0.044253                      
system.ruby.outstanding_req_hist_seqr    |           0      0.00%      0.00% |  2270007684     99.80%     99.80% |     4462840      0.20%    100.00% |           0      0.00%    100.00% |           0      0.00%    100.00% |           0      0.00%    100.00% |           0      0.00%    100.00% |           0      0.00%    100.00% |           0      0.00%    100.00% |           0      0.00%    100.00%
system.ruby.outstanding_req_hist_seqr::total   2274470524                      
system.ruby.latency_hist_seqr::bucket_size          256                      
system.ruby.latency_hist_seqr::max_bucket         2559                      
system.ruby.latency_hist_seqr::samples     2274470524                      
system.ruby.latency_hist_seqr::mean          1.131871                      
[...]
system.ruby.L1Cache_Controller.L0_Ack::total       374389                      
system.ruby.L1Cache_Controller.Ack       |       12466     46.03%     46.03% |        5794     21.40%     67.43% |        4477     16.53%     83.96% |        4343     16.04%    100.00%
system.ruby.L1Cache_Controller.Ack::total        27080                      
system.ruby.L1Cache_Controller.Ack_all   |        5838     37.08%     37.08% |        3266     20.74%     57.82% |        3360     21.34%     79.16% |        3281     20.84%    100.00%
system.ruby.L1Cache_Controller.Ack_all::total        15745                      
system.ruby.L1Cache_Controller.WB_Ack    |      118218      4.31%      4.31% |     2184873     79.66%     83.97% |      412894     15.05%     99.02% |       26760      0.98%    100.00%
system.ruby.L1Cache_Controller.WB_Ack::total      2742745                      
system.ruby.L1Cache_Controller.I.Load    |      161395      6.62%      6.62% |     1785208     73.18%     79.80% |      422683     17.33%     97.12% |       70210      2.88%    100.00%
system.ruby.L1Cache_Controller.I.Load::total      2439496                      
system.ruby.L1Cache_Controller.I.Store   |       28656      4.62%      4.62% |      495815     79.88%     84.50% |       85779     13.82%     98.32% |       10432      1.68%    100.00%
system.ruby.L1Cache_Controller.I.Store::total       620682                      
system.ruby.L1Cache_Controller.I.Inv     |        6424     29.26%     29.26% |        5592     25.47%     54.74% |        5591     25.47%     80.21% |        4345     19.79%    100.00%
system.ruby.L1Cache_Controller.I.Inv::total        21952                      
system.ruby.L1Cache_Controller.S.Load    |      204273     14.67%     14.67% |      792310     56.90%     71.57% |      236147     16.96%     88.53% |      159782     11.47%    100.00%
system.ruby.L1Cache_Controller.S.Load::total      1392512                      
system.ruby.L1Cache_Controller.S.Store   |        3779     35.38%     35.38% |        2413     22.59%     57.98% |        2453     22.97%     80.95% |        2035     19.05%    100.00%
system.ruby.L1Cache_Controller.S.Store::total        10680                      
system.ruby.L1Cache_Controller.S.L0_Invalidate_Own |       56837     21.95%     21.95% |       87511     33.80%     55.75% |       78584     30.35%     86.10% |       35992     13.90%    100.00%
system.ruby.L1Cache_Controller.S.L0_Invalidate_Own::total       258924                      
system.ruby.L1Cache_Controller.S.L0_Invalidate_Else |        5869     21.87%     21.87% |        3483     12.98%     34.85% |        8929     33.28%     68.13% |        8551     31.87%    100.00%
system.ruby.L1Cache_Controller.S.L0_Invalidate_Else::total        26832                      
system.ruby.L1Cache_Controller.SS.Load   |        3032     34.14%     34.14% |        1102     12.41%     46.55% |        1881     21.18%     67.74% |        2865     32.26%    100.00%
system.ruby.L1Cache_Controller.SS.Load::total         8880                      
system.ruby.L1Cache_Controller.SS.Store  |         927     77.51%     77.51% |         143     11.96%     89.46% |          81      6.77%     96.24% |          45      3.76%    100.00%
system.ruby.L1Cache_Controller.SS.Store::total         1196                      
system.ruby.L1Cache_Controller.SS.Inv    |        8151     22.35%     22.35% |        4980     13.66%     36.01% |       11643     31.93%     67.93% |       11694     32.07%    100.00%
system.ruby.L1Cache_Controller.SS.Inv::total        36468                      
system.ruby.L1Cache_Controller.SS.L1_Replacement |       57687     21.79%     21.79% |       89438     33.79%     55.58% |       79977     30.21%     85.79% |       37617     14.21%    100.00%
system.ruby.L1Cache_Controller.SS.L1_Replacement::total       264719                      
system.ruby.L1Cache_Controller.E.WriteBack |       95767      4.60%      4.60% |     1636549     78.54%     83.13% |      326612     15.67%     98.81% |       24856      1.19%    100.00%
system.ruby.L1Cache_Controller.E.WriteBack::total      2083784                      
system.ruby.L1Cache_Controller.E.L0_Invalidate_Own |        1683      2.60%      2.60% |       56087     86.49%     89.08% |        6894     10.63%     99.71% |         185      0.29%    100.00%
system.ruby.L1Cache_Controller.E.L0_Invalidate_Own::total        64849                      
system.ruby.L1Cache_Controller.E.L0_Invalidate_Else |         534     17.85%     17.85% |         235      7.86%     25.71% |        1010     33.77%     59.48% |        1212     40.52%    100.00%
system.ruby.L1Cache_Controller.E.L0_Invalidate_Else::total         2991                      
system.ruby.L1Cache_Controller.EE.Inv    |         213     25.66%     25.66% |          25      3.01%     28.67% |         331     39.88%     68.55% |         261     31.45%    100.00%
system.ruby.L1Cache_Controller.EE.Inv::total          830                      
system.ruby.L1Cache_Controller.EE.L1_Replacement |        1530      2.38%      2.38% |       55870     86.93%     89.31% |        6726     10.47%     99.78% |         143      0.22%    100.00%
system.ruby.L1Cache_Controller.EE.L1_Replacement::total        64269                      
system.ruby.L1Cache_Controller.EE.Fwd_GETX |           9     52.94%     52.94% |           2     11.76%     64.71% |           5     29.41%     94.12% |           1      5.88%    100.00%
system.ruby.L1Cache_Controller.EE.Fwd_GETX::total           17                      
system.ruby.L1Cache_Controller.EE.Fwd_GETS |         217     12.74%     12.74% |         145      8.51%     21.26% |         547     32.12%     53.38% |         794     46.62%    100.00%
system.ruby.L1Cache_Controller.EE.Fwd_GETS::total         1703                      
system.ruby.L1Cache_Controller.M.WriteBack |      262907      1.08%      1.08% |    20302884     83.14%     84.21% |     3764009     15.41%     99.62% |       91603      0.38%    100.00%
system.ruby.L1Cache_Controller.M.WriteBack::total     24421403                      
system.ruby.L1Cache_Controller.M.L0_Invalidate_Own |        3936     14.46%     14.46% |       14670     53.89%     68.34% |        7185     26.39%     94.74% |        1433      5.26%    100.00%
system.ruby.L1Cache_Controller.M.L0_Invalidate_Own::total        27224                      
system.ruby.L1Cache_Controller.M.L0_Invalidate_Else |        3422     41.79%     41.79% |         624      7.62%     49.41% |        2004     24.47%     73.88% |        2139     26.12%    100.00%
system.ruby.L1Cache_Controller.M.L0_Invalidate_Else::total         8189                      
system.ruby.L1Cache_Controller.MM.Load   |      168754      0.78%      0.78% |    18026627     83.26%     84.04% |     3400491     15.71%     99.74% |       55407      0.26%    100.00%
system.ruby.L1Cache_Controller.MM.Load::total     21651279                      
system.ruby.L1Cache_Controller.MM.Store  |       68146      3.14%      3.14% |     1793179     82.52%     85.66% |      284384     13.09%     98.75% |       27259      1.25%    100.00%
system.ruby.L1Cache_Controller.MM.Store::total      2172968                      
system.ruby.L1Cache_Controller.MM.Inv    |        5372     41.23%     41.23% |         930      7.14%     48.37% |        3083     23.66%     72.04% |        3643     27.96%    100.00%
system.ruby.L1Cache_Controller.MM.Inv::total        13028                      
system.ruby.L1Cache_Controller.MM.L1_Replacement |      116688      4.36%      4.36% |     2129003     79.49%     83.84% |      406168     15.16%     99.01% |       26617      0.99%    100.00%
system.ruby.L1Cache_Controller.MM.L1_Replacement::total      2678476                      
system.ruby.L1Cache_Controller.MM.Fwd_GETX |         569     23.81%     23.81% |         753     31.51%     55.31% |         529     22.13%     77.45% |         539     22.55%    100.00%
system.ruby.L1Cache_Controller.MM.Fwd_GETX::total         2390                      
system.ruby.L1Cache_Controller.MM.Fwd_GETS |        6810     28.93%     28.93% |        4463     18.96%     47.89% |        5522     23.46%     71.35% |        6744     28.65%    100.00%
system.ruby.L1Cache_Controller.MM.Fwd_GETS::total        23539                      
system.ruby.L1Cache_Controller.IS.Data_Exclusive |       97990      4.55%      4.55% |     1692868     78.68%     83.23% |      334506     15.55%     98.78% |       26254      1.22%    100.00%
system.ruby.L1Cache_Controller.IS.Data_Exclusive::total      2151618                      
system.ruby.L1Cache_Controller.IS.DataS_fromL1 |        7261     28.77%     28.77% |        4330     17.15%     45.92% |        8432     33.40%     79.32% |        5219     20.68%    100.00%
system.ruby.L1Cache_Controller.IS.DataS_fromL1::total        25242                      
system.ruby.L1Cache_Controller.IS.Data_all_Acks |       56144     21.38%     21.38% |       88010     33.51%     54.89% |       79745     30.36%     85.25% |       38737     14.75%    100.00%
system.ruby.L1Cache_Controller.IS.Data_all_Acks::total       262636                      
system.ruby.L1Cache_Controller.IM.Data   |        1132     29.25%     29.25% |         711     18.37%     47.62% |         826     21.34%     68.97% |        1201     31.03%    100.00%
system.ruby.L1Cache_Controller.IM.Data::total         3870                      
system.ruby.L1Cache_Controller.IM.Data_all_Acks |       27524      4.46%      4.46% |      495105     80.27%     84.73% |       84953     13.77%     98.50% |        9231      1.50%    100.00%
system.ruby.L1Cache_Controller.IM.Data_all_Acks::total       616813                      
system.ruby.L1Cache_Controller.SM.Inv    |           0      0.00%      0.00% |           1    100.00%    100.00% |           0      0.00%    100.00% |           0      0.00%    100.00%
system.ruby.L1Cache_Controller.SM.Inv::total            1                      
system.ruby.L1Cache_Controller.SM.Ack    |       12466     46.03%     46.03% |        5794     21.40%     67.43% |        4477     16.53%     83.96% |        4343     16.04%    100.00%
system.ruby.L1Cache_Controller.SM.Ack::total        27080                      
system.ruby.L1Cache_Controller.SM.Ack_all |        5838     37.08%     37.08% |        3266     20.74%     57.82% |        3360     21.34%     79.16% |        3281     20.84%    100.00%
system.ruby.L1Cache_Controller.SM.Ack_all::total        15745                      
system.ruby.L1Cache_Controller.M_I.WB_Ack |      118218      4.31%      4.31% |     2184873     79.66%     83.97% |      412894     15.05%     99.02% |       26760      0.98%    100.00%
system.ruby.L1Cache_Controller.M_I.WB_Ack::total      2742745                      
system.ruby.L1Cache_Controller.S_IL0.L0_Invalidate_Own |       56837     21.95%     21.95% |       87511     33.80%     55.75% |       78584     30.35%     86.10% |       35992     13.90%    100.00%
system.ruby.L1Cache_Controller.S_IL0.L0_Invalidate_Own::total       258924                      
system.ruby.L1Cache_Controller.S_IL0.L0_Invalidate_Else |        5869     21.87%     21.87% |        3483     12.98%     34.85% |        8929     33.28%     68.13% |        8551     31.87%    100.00%
system.ruby.L1Cache_Controller.S_IL0.L0_Invalidate_Else::total        26832                      
system.ruby.L1Cache_Controller.S_IL0.L0_Ack |       62706     21.94%     21.94% |       90994     31.84%     53.79% |       87513     30.63%     84.41% |       44543     15.59%    100.00%
system.ruby.L1Cache_Controller.S_IL0.L0_Ack::total       285756                      
system.ruby.L1Cache_Controller.E_IL0.L0_DataAck |         248     24.29%     24.29% |         280     27.42%     51.71% |         295     28.89%     80.61% |         198     19.39%    100.00%
system.ruby.L1Cache_Controller.E_IL0.L0_DataAck::total         1021                      
system.ruby.L1Cache_Controller.E_IL0.L0_Invalidate_Own |        1683      2.60%      2.60% |       56087     86.49%     89.08% |        6894     10.63%     99.71% |         185      0.29%    100.00%
system.ruby.L1Cache_Controller.E_IL0.L0_Invalidate_Own::total        64849                      
system.ruby.L1Cache_Controller.E_IL0.L0_Invalidate_Else |         534     17.85%     17.85% |         235      7.86%     25.71% |        1010     33.77%     59.48% |        1212     40.52%    100.00%
system.ruby.L1Cache_Controller.E_IL0.L0_Invalidate_Else::total         2991                      
system.ruby.L1Cache_Controller.E_IL0.L0_Ack |        1969      2.95%      2.95% |       56042     83.87%     86.82% |        7609     11.39%     98.21% |        1199      1.79%    100.00%
system.ruby.L1Cache_Controller.E_IL0.L0_Ack::total        66819                      
system.ruby.L1Cache_Controller.M_IL0.WriteBack |           0      0.00%      0.00% |           0      0.00%      0.00% |           1    100.00%    100.00% |           0      0.00%    100.00%
system.ruby.L1Cache_Controller.M_IL0.WriteBack::total            1                      
system.ruby.L1Cache_Controller.M_IL0.L0_DataAck |        4662     34.28%     34.28% |        2851     20.96%     55.25% |        3835     28.20%     83.45% |        2251     16.55%    100.00%
system.ruby.L1Cache_Controller.M_IL0.L0_DataAck::total        13599                      
system.ruby.L1Cache_Controller.M_IL0.L0_Invalidate_Own |        3936     14.46%     14.46% |       14670     53.89%     68.34% |        7185     26.39%     94.74% |        1433      5.26%    100.00%
system.ruby.L1Cache_Controller.M_IL0.L0_Invalidate_Own::total        27224                      
system.ruby.L1Cache_Controller.M_IL0.L0_Invalidate_Else |        3423     41.79%     41.79% |         624      7.62%     49.41% |        2004     24.47%     73.88% |        2139     26.12%    100.00%
system.ruby.L1Cache_Controller.M_IL0.L0_Invalidate_Else::total         8190                      
system.ruby.L1Cache_Controller.M_IL0.L0_Ack |        2696     12.36%     12.36% |       12443     57.04%     69.40% |        5353     24.54%     93.94% |        1321      6.06%    100.00%
system.ruby.L1Cache_Controller.M_IL0.L0_Ack::total        21813                      
system.ruby.L1Cache_Controller.MM_IL0.Fwd_GETS |           0      0.00%      0.00% |           0      0.00%      0.00% |           1    100.00%    100.00% |           0      0.00%    100.00%
system.ruby.L1Cache_Controller.MM_IL0.Fwd_GETS::total            1                      
system.ruby.L1Cache_Controller.MM_IL0.L0_Ack |           0      0.00%      0.00% |           0      0.00%      0.00% |           1    100.00%    100.00% |           0      0.00%    100.00%
system.ruby.L1Cache_Controller.MM_IL0.L0_Ack::total            1                      
system.ruby.L2Cache_Controller.L1_GETS        2439538      0.00%      0.00%
system.ruby.L2Cache_Controller.L1_GETX         620684      0.00%      0.00%
system.ruby.L2Cache_Controller.L1_UPGRADE        11876      0.00%      0.00%
system.ruby.L2Cache_Controller.L1_PUTX        2742745      0.00%      0.00%
system.ruby.L2Cache_Controller.L2_Replacement       835734      0.00%      0.00%
system.ruby.L2Cache_Controller.L2_Replacement_clean       640559      0.00%      0.00%
system.ruby.L2Cache_Controller.Mem_Data       1477387      0.00%      0.00%
system.ruby.L2Cache_Controller.Mem_Ack        1476535      0.00%      0.00%
system.ruby.L2Cache_Controller.WB_Data          17974      0.00%      0.00%
system.ruby.L2Cache_Controller.WB_Data_clean        20296      0.00%      0.00%
system.ruby.L2Cache_Controller.Ack              18826      0.00%      0.00%
system.ruby.L2Cache_Controller.Ack_all           9475      0.00%      0.00%
system.ruby.L2Cache_Controller.Unblock          25242      0.00%      0.00%
system.ruby.L2Cache_Controller.Exclusive_Unblock      2784176      0.00%      0.00%
system.ruby.L2Cache_Controller.MEM_Inv            484      0.00%      0.00%
system.ruby.L2Cache_Controller.NP.L1_GETS       965803      0.00%      0.00%
system.ruby.L2Cache_Controller.NP.L1_GETX       511584      0.00%      0.00%
system.ruby.L2Cache_Controller.SS.L1_GETS       262634      0.00%      0.00%
system.ruby.L2Cache_Controller.SS.L1_GETX         3870      0.00%      0.00%
system.ruby.L2Cache_Controller.SS.L1_UPGRADE        11875      0.00%      0.00%
system.ruby.L2Cache_Controller.SS.L2_Replacement          733      0.00%      0.00%
system.ruby.L2Cache_Controller.SS.L2_Replacement_clean         7912      0.00%      0.00%
system.ruby.L2Cache_Controller.M.L1_GETS      1185816      0.00%      0.00%
system.ruby.L2Cache_Controller.M.L1_GETX       102822      0.00%      0.00%
system.ruby.L2Cache_Controller.M.L2_Replacement       833232      0.00%      0.00%
system.ruby.L2Cache_Controller.M.L2_Replacement_clean       620616      0.00%      0.00%
system.ruby.L2Cache_Controller.M.MEM_Inv          184      0.00%      0.00%
system.ruby.L2Cache_Controller.MT.L1_GETS        25242      0.00%      0.00%
system.ruby.L2Cache_Controller.MT.L1_GETX         2407      0.00%      0.00%
system.ruby.L2Cache_Controller.MT.L1_PUTX      2742745      0.00%      0.00%
system.ruby.L2Cache_Controller.MT.L2_Replacement         1769      0.00%      0.00%
system.ruby.L2Cache_Controller.MT.L2_Replacement_clean        12031      0.00%      0.00%
system.ruby.L2Cache_Controller.MT.MEM_Inv           58      0.00%      0.00%
system.ruby.L2Cache_Controller.M_I.Mem_Ack      1476535      0.00%      0.00%
system.ruby.L2Cache_Controller.M_I.MEM_Inv          184      0.00%      0.00%
system.ruby.L2Cache_Controller.MT_I.WB_Data         1486      0.00%      0.00%
system.ruby.L2Cache_Controller.MT_I.WB_Data_clean          300      0.00%      0.00%
system.ruby.L2Cache_Controller.MT_I.Ack_all           41      0.00%      0.00%
system.ruby.L2Cache_Controller.MT_I.MEM_Inv           58      0.00%      0.00%
system.ruby.L2Cache_Controller.MCT_I.WB_Data         5708      0.00%      0.00%
system.ruby.L2Cache_Controller.MCT_I.WB_Data_clean         5534      0.00%      0.00%
system.ruby.L2Cache_Controller.MCT_I.Ack_all          789      0.00%      0.00%
system.ruby.L2Cache_Controller.I_I.Ack          17925      0.00%      0.00%
system.ruby.L2Cache_Controller.I_I.Ack_all         7912      0.00%      0.00%
system.ruby.L2Cache_Controller.S_I.Ack            901      0.00%      0.00%
system.ruby.L2Cache_Controller.S_I.Ack_all          733      0.00%      0.00%
system.ruby.L2Cache_Controller.ISS.L1_GETS            1      0.00%      0.00%
system.ruby.L2Cache_Controller.ISS.Mem_Data       965802      0.00%      0.00%
system.ruby.L2Cache_Controller.IS.Mem_Data            1      0.00%      0.00%
system.ruby.L2Cache_Controller.IM.Mem_Data       511584      0.00%      0.00%
system.ruby.L2Cache_Controller.SS_MB.L1_GETS           25      0.00%      0.00%
system.ruby.L2Cache_Controller.SS_MB.L1_UPGRADE            1      0.00%      0.00%
system.ruby.L2Cache_Controller.SS_MB.Exclusive_Unblock        15745      0.00%      0.00%
system.ruby.L2Cache_Controller.MT_MB.L1_GETS           14      0.00%      0.00%
system.ruby.L2Cache_Controller.MT_MB.L1_GETX            1      0.00%      0.00%
system.ruby.L2Cache_Controller.MT_MB.Exclusive_Unblock      2768431      0.00%      0.00%
system.ruby.L2Cache_Controller.MT_IIB.L1_GETS            3      0.00%      0.00%
system.ruby.L2Cache_Controller.MT_IIB.WB_Data        10770      0.00%      0.00%
system.ruby.L2Cache_Controller.MT_IIB.WB_Data_clean        14447      0.00%      0.00%
system.ruby.L2Cache_Controller.MT_IIB.Unblock           25      0.00%      0.00%
system.ruby.L2Cache_Controller.MT_IB.WB_Data           10      0.00%      0.00%
system.ruby.L2Cache_Controller.MT_IB.WB_Data_clean           15      0.00%      0.00%
system.ruby.L2Cache_Controller.MT_SB.Unblock        25217      0.00%      0.00%

---------- End Simulation Statistics   ----------
