
---------- Begin Simulation Statistics ----------
sim_seconds                                  3.606408                       # Number of seconds simulated
sim_ticks                                3606407711500                       # Number of ticks simulated
final_tick                               54845067461001                       # Number of ticks from beginning of simulation (restored from checkpoints and never reset)
sim_freq                                 1000000000000                       # Frequency of simulated ticks
host_inst_rate                                 136018                       # Simulator instruction rate (inst/s)
host_op_rate                                   231645                       # Simulator op (including micro ops) rate (op/s)
host_tick_rate                              242753559                       # Simulator tick rate (ticks/s)
host_mem_usage                                1865104                       # Number of bytes of host memory used
host_seconds                                 14856.25                       # Real time elapsed on the host
sim_insts                                  2020719589                       # Number of instructions simulated
sim_ops                                    3441372147                       # Number of ops (including micro ops) simulated
system.voltage_domain.voltage                       1                       # Voltage in Volts
system.clk_domain.clock                          1000                       # Clock period in ticks
system.mem_ctrls0.bytes_read::ruby.dir_cntrl0       644672                       # Number of bytes read from this memory
system.mem_ctrls0.bytes_read::total            644672                       # Number of bytes read from this memory
system.mem_ctrls0.bytes_written::ruby.dir_cntrl0       200768                       # Number of bytes written to this memory
system.mem_ctrls0.bytes_written::total         200768                       # Number of bytes written to this memory
system.mem_ctrls0.num_reads::ruby.dir_cntrl0        10073                       # Number of read requests responded to by this memory
system.mem_ctrls0.num_reads::total              10073                       # Number of read requests responded to by this memory
system.mem_ctrls0.num_writes::ruby.dir_cntrl0         3137                       # Number of write requests responded to by this memory
system.mem_ctrls0.num_writes::total              3137                       # Number of write requests responded to by this memory
system.mem_ctrls0.bw_read::ruby.dir_cntrl0       178757                       # Total read bandwidth from this memory (bytes/s)
system.mem_ctrls0.bw_read::total               178757                       # Total read bandwidth from this memory (bytes/s)
system.mem_ctrls0.bw_write::ruby.dir_cntrl0        55670                       # Write bandwidth from this memory (bytes/s)
system.mem_ctrls0.bw_write::total               55670                       # Write bandwidth from this memory (bytes/s)
system.mem_ctrls0.bw_total::ruby.dir_cntrl0       234427                       # Total bandwidth to/from this memory (bytes/s)
system.mem_ctrls0.bw_total::total              234427                       # Total bandwidth to/from this memory (bytes/s)
system.mem_ctrls0.readReqs                      10073                       # Number of read requests accepted
system.mem_ctrls0.writeReqs                      3137                       # Number of write requests accepted
system.mem_ctrls0.readBursts                    10073                       # Number of DRAM read bursts, including those serviced by the write queue
system.mem_ctrls0.writeBursts                    3137                       # Number of DRAM write bursts, including those merged in the write queue
system.mem_ctrls0.bytesReadDRAM                640896                       # Total number of bytes read from DRAM
system.mem_ctrls0.bytesReadWrQ                   3776                       # Total number of bytes read from write queue
system.mem_ctrls0.bytesWritten                 200064                       # Total number of bytes written to DRAM
system.mem_ctrls0.bytesReadSys                 644672                       # Total read bytes from the system interface side
system.mem_ctrls0.bytesWrittenSys              200768                       # Total written bytes from the system interface side
system.mem_ctrls0.servicedByWrQ                    59                       # Number of DRAM read bursts serviced by the write queue
system.mem_ctrls0.mergedWrBursts                    1                       # Number of DRAM write bursts merged with an existing one
system.mem_ctrls0.neitherReadNorWriteReqs            0                       # Number of requests that are neither read nor write
system.mem_ctrls0.perBankRdBursts::0              945                       # Per bank write bursts
system.mem_ctrls0.perBankRdBursts::1              699                       # Per bank write bursts
system.mem_ctrls0.perBankRdBursts::2              507                       # Per bank write bursts
system.mem_ctrls0.perBankRdBursts::3              543                       # Per bank write bursts
system.mem_ctrls0.perBankRdBursts::4              543                       # Per bank write bursts
system.mem_ctrls0.perBankRdBursts::5              666                       # Per bank write bursts
system.mem_ctrls0.perBankRdBursts::6              501                       # Per bank write bursts
system.mem_ctrls0.perBankRdBursts::7              795                       # Per bank write bursts
system.mem_ctrls0.perBankRdBursts::8              442                       # Per bank write bursts
system.mem_ctrls0.perBankRdBursts::9              721                       # Per bank write bursts
system.mem_ctrls0.perBankRdBursts::10             708                       # Per bank write bursts
system.mem_ctrls0.perBankRdBursts::11             500                       # Per bank write bursts
system.mem_ctrls0.perBankRdBursts::12             612                       # Per bank write bursts
system.mem_ctrls0.perBankRdBursts::13             452                       # Per bank write bursts
system.mem_ctrls0.perBankRdBursts::14             574                       # Per bank write bursts
system.mem_ctrls0.perBankRdBursts::15             806                       # Per bank write bursts
system.mem_ctrls0.perBankWrBursts::0              528                       # Per bank write bursts
system.mem_ctrls0.perBankWrBursts::1              264                       # Per bank write bursts
system.mem_ctrls0.perBankWrBursts::2              356                       # Per bank write bursts
system.mem_ctrls0.perBankWrBursts::3              162                       # Per bank write bursts
system.mem_ctrls0.perBankWrBursts::4               28                       # Per bank write bursts
system.mem_ctrls0.perBankWrBursts::5               63                       # Per bank write bursts
system.mem_ctrls0.perBankWrBursts::6               74                       # Per bank write bursts
system.mem_ctrls0.perBankWrBursts::7              195                       # Per bank write bursts
system.mem_ctrls0.perBankWrBursts::8              106                       # Per bank write bursts
system.mem_ctrls0.perBankWrBursts::9              229                       # Per bank write bursts
system.mem_ctrls0.perBankWrBursts::10             295                       # Per bank write bursts
system.mem_ctrls0.perBankWrBursts::11             168                       # Per bank write bursts
system.mem_ctrls0.perBankWrBursts::12             198                       # Per bank write bursts
system.mem_ctrls0.perBankWrBursts::13             113                       # Per bank write bursts
system.mem_ctrls0.perBankWrBursts::14              57                       # Per bank write bursts
system.mem_ctrls0.perBankWrBursts::15             290                       # Per bank write bursts
system.mem_ctrls0.numRdRetry                        0                       # Number of times read queue was full causing retry
system.mem_ctrls0.numWrRetry                        0                       # Number of times write queue was full causing retry
system.mem_ctrls0.totGap                 3606407503000                       # Total gap between requests
system.mem_ctrls0.readPktSize::0                    0                       # Read request sizes (log2)
system.mem_ctrls0.readPktSize::1                    0                       # Read request sizes (log2)
system.mem_ctrls0.readPktSize::2                    0                       # Read request sizes (log2)
system.mem_ctrls0.readPktSize::3                    0                       # Read request sizes (log2)
system.mem_ctrls0.readPktSize::4                    0                       # Read request sizes (log2)
system.mem_ctrls0.readPktSize::5                    0                       # Read request sizes (log2)
system.mem_ctrls0.readPktSize::6                10073                       # Read request sizes (log2)
system.mem_ctrls0.writePktSize::0                   0                       # Write request sizes (log2)
system.mem_ctrls0.writePktSize::1                   0                       # Write request sizes (log2)
system.mem_ctrls0.writePktSize::2                   0                       # Write request sizes (log2)
system.mem_ctrls0.writePktSize::3                   0                       # Write request sizes (log2)
system.mem_ctrls0.writePktSize::4                   0                       # Write request sizes (log2)
system.mem_ctrls0.writePktSize::5                   0                       # Write request sizes (log2)
system.mem_ctrls0.writePktSize::6                3137                       # Write request sizes (log2)
system.mem_ctrls0.rdQLenPdf::0                   9977                       # What read queue length does an incoming req see
system.mem_ctrls0.rdQLenPdf::1                     37                       # What read queue length does an incoming req see
system.mem_ctrls0.rdQLenPdf::2                      0                       # What read queue length does an incoming req see
system.mem_ctrls0.rdQLenPdf::3                      0                       # What read queue length does an incoming req see
system.mem_ctrls0.rdQLenPdf::4                      0                       # What read queue length does an incoming req see
system.mem_ctrls0.rdQLenPdf::5                      0                       # What read queue length does an incoming req see
system.mem_ctrls0.rdQLenPdf::6                      0                       # What read queue length does an incoming req see
system.mem_ctrls0.rdQLenPdf::7                      0                       # What read queue length does an incoming req see
system.mem_ctrls0.rdQLenPdf::8                      0                       # What read queue length does an incoming req see
system.mem_ctrls0.rdQLenPdf::9                      0                       # What read queue length does an incoming req see
system.mem_ctrls0.rdQLenPdf::10                     0                       # What read queue length does an incoming req see
system.mem_ctrls0.rdQLenPdf::11                     0                       # What read queue length does an incoming req see
system.mem_ctrls0.rdQLenPdf::12                     0                       # What read queue length does an incoming req see
system.mem_ctrls0.rdQLenPdf::13                     0                       # What read queue length does an incoming req see
system.mem_ctrls0.rdQLenPdf::14                     0                       # What read queue length does an incoming req see
system.mem_ctrls0.rdQLenPdf::15                     0                       # What read queue length does an incoming req see
system.mem_ctrls0.rdQLenPdf::16                     0                       # What read queue length does an incoming req see
system.mem_ctrls0.rdQLenPdf::17                     0                       # What read queue length does an incoming req see
system.mem_ctrls0.rdQLenPdf::18                     0                       # What read queue length does an incoming req see
system.mem_ctrls0.rdQLenPdf::19                     0                       # What read queue length does an incoming req see
system.mem_ctrls0.rdQLenPdf::20                     0                       # What read queue length does an incoming req see
system.mem_ctrls0.rdQLenPdf::21                     0                       # What read queue length does an incoming req see
system.mem_ctrls0.rdQLenPdf::22                     0                       # What read queue length does an incoming req see
system.mem_ctrls0.rdQLenPdf::23                     0                       # What read queue length does an incoming req see
system.mem_ctrls0.rdQLenPdf::24                     0                       # What read queue length does an incoming req see
system.mem_ctrls0.rdQLenPdf::25                     0                       # What read queue length does an incoming req see
system.mem_ctrls0.rdQLenPdf::26                     0                       # What read queue length does an incoming req see
system.mem_ctrls0.rdQLenPdf::27                     0                       # What read queue length does an incoming req see
system.mem_ctrls0.rdQLenPdf::28                     0                       # What read queue length does an incoming req see
system.mem_ctrls0.rdQLenPdf::29                     0                       # What read queue length does an incoming req see
system.mem_ctrls0.rdQLenPdf::30                     0                       # What read queue length does an incoming req see
system.mem_ctrls0.rdQLenPdf::31                     0                       # What read queue length does an incoming req see
system.mem_ctrls0.wrQLenPdf::0                      0                       # What write queue length does an incoming req see
system.mem_ctrls0.wrQLenPdf::1                      0                       # What write queue length does an incoming req see
system.mem_ctrls0.wrQLenPdf::2                      0                       # What write queue length does an incoming req see
system.mem_ctrls0.wrQLenPdf::3                      0                       # What write queue length does an incoming req see
system.mem_ctrls0.wrQLenPdf::4                      0                       # What write queue length does an incoming req see
system.mem_ctrls0.wrQLenPdf::5                      0                       # What write queue length does an incoming req see
system.mem_ctrls0.wrQLenPdf::6                      0                       # What write queue length does an incoming req see
system.mem_ctrls0.wrQLenPdf::7                      0                       # What write queue length does an incoming req see
system.mem_ctrls0.wrQLenPdf::8                      0                       # What write queue length does an incoming req see
system.mem_ctrls0.wrQLenPdf::9                      0                       # What write queue length does an incoming req see
system.mem_ctrls0.wrQLenPdf::10                     0                       # What write queue length does an incoming req see
system.mem_ctrls0.wrQLenPdf::11                     1                       # What write queue length does an incoming req see
system.mem_ctrls0.wrQLenPdf::12                     1                       # What write queue length does an incoming req see
system.mem_ctrls0.wrQLenPdf::13                     1                       # What write queue length does an incoming req see
system.mem_ctrls0.wrQLenPdf::14                     1                       # What write queue length does an incoming req see
system.mem_ctrls0.wrQLenPdf::15                    84                       # What write queue length does an incoming req see
system.mem_ctrls0.wrQLenPdf::16                    91                       # What write queue length does an incoming req see
system.mem_ctrls0.wrQLenPdf::17                   192                       # What write queue length does an incoming req see
system.mem_ctrls0.wrQLenPdf::18                   184                       # What write queue length does an incoming req see
system.mem_ctrls0.wrQLenPdf::19                   195                       # What write queue length does an incoming req see
system.mem_ctrls0.wrQLenPdf::20                   186                       # What write queue length does an incoming req see
system.mem_ctrls0.wrQLenPdf::21                   189                       # What write queue length does an incoming req see
system.mem_ctrls0.wrQLenPdf::22                   196                       # What write queue length does an incoming req see
system.mem_ctrls0.wrQLenPdf::23                   183                       # What write queue length does an incoming req see
system.mem_ctrls0.wrQLenPdf::24                   180                       # What write queue length does an incoming req see
system.mem_ctrls0.wrQLenPdf::25                   181                       # What write queue length does an incoming req see
system.mem_ctrls0.wrQLenPdf::26                   179                       # What write queue length does an incoming req see
system.mem_ctrls0.wrQLenPdf::27                   181                       # What write queue length does an incoming req see
system.mem_ctrls0.wrQLenPdf::28                   181                       # What write queue length does an incoming req see
system.mem_ctrls0.wrQLenPdf::29                   178                       # What write queue length does an incoming req see
system.mem_ctrls0.wrQLenPdf::30                   179                       # What write queue length does an incoming req see
system.mem_ctrls0.wrQLenPdf::31                   179                       # What write queue length does an incoming req see
system.mem_ctrls0.wrQLenPdf::32                   178                       # What write queue length does an incoming req see
system.mem_ctrls0.wrQLenPdf::33                     5                       # What write queue length does an incoming req see
system.mem_ctrls0.wrQLenPdf::34                     3                       # What write queue length does an incoming req see
system.mem_ctrls0.wrQLenPdf::35                     4                       # What write queue length does an incoming req see
system.mem_ctrls0.wrQLenPdf::36                     2                       # What write queue length does an incoming req see
system.mem_ctrls0.wrQLenPdf::37                     2                       # What write queue length does an incoming req see
system.mem_ctrls0.wrQLenPdf::38                     0                       # What write queue length does an incoming req see
system.mem_ctrls0.wrQLenPdf::39                     0                       # What write queue length does an incoming req see
system.mem_ctrls0.wrQLenPdf::40                     0                       # What write queue length does an incoming req see
system.mem_ctrls0.wrQLenPdf::41                     0                       # What write queue length does an incoming req see
system.mem_ctrls0.wrQLenPdf::42                     0                       # What write queue length does an incoming req see
system.mem_ctrls0.wrQLenPdf::43                     0                       # What write queue length does an incoming req see
system.mem_ctrls0.wrQLenPdf::44                     0                       # What write queue length does an incoming req see
system.mem_ctrls0.wrQLenPdf::45                     0                       # What write queue length does an incoming req see
system.mem_ctrls0.wrQLenPdf::46                     0                       # What write queue length does an incoming req see
system.mem_ctrls0.wrQLenPdf::47                     0                       # What write queue length does an incoming req see
system.mem_ctrls0.wrQLenPdf::48                     0                       # What write queue length does an incoming req see
system.mem_ctrls0.wrQLenPdf::49                     0                       # What write queue length does an incoming req see
system.mem_ctrls0.wrQLenPdf::50                     0                       # What write queue length does an incoming req see
system.mem_ctrls0.wrQLenPdf::51                     0                       # What write queue length does an incoming req see
system.mem_ctrls0.wrQLenPdf::52                     0                       # What write queue length does an incoming req see
system.mem_ctrls0.wrQLenPdf::53                     0                       # What write queue length does an incoming req see
system.mem_ctrls0.wrQLenPdf::54                     0                       # What write queue length does an incoming req see
system.mem_ctrls0.wrQLenPdf::55                     0                       # What write queue length does an incoming req see
system.mem_ctrls0.wrQLenPdf::56                     0                       # What write queue length does an incoming req see
system.mem_ctrls0.wrQLenPdf::57                     0                       # What write queue length does an incoming req see
system.mem_ctrls0.wrQLenPdf::58                     0                       # What write queue length does an incoming req see
system.mem_ctrls0.wrQLenPdf::59                     0                       # What write queue length does an incoming req see
system.mem_ctrls0.wrQLenPdf::60                     0                       # What write queue length does an incoming req see
system.mem_ctrls0.wrQLenPdf::61                     0                       # What write queue length does an incoming req see
system.mem_ctrls0.wrQLenPdf::62                     0                       # What write queue length does an incoming req see
system.mem_ctrls0.wrQLenPdf::63                     0                       # What write queue length does an incoming req see
system.mem_ctrls0.bytesPerActivate::samples         4385                       # Bytes accessed per row activation
system.mem_ctrls0.bytesPerActivate::mean   191.810262                       # Bytes accessed per row activation
system.mem_ctrls0.bytesPerActivate::gmean   115.916648                       # Bytes accessed per row activation
system.mem_ctrls0.bytesPerActivate::stdev   258.106229                       # Bytes accessed per row activation
system.mem_ctrls0.bytesPerActivate::0-127         2575     58.72%     58.72% # Bytes accessed per row activation
system.mem_ctrls0.bytesPerActivate::128-255          962     21.94%     80.66% # Bytes accessed per row activation
system.mem_ctrls0.bytesPerActivate::256-383          256      5.84%     86.50% # Bytes accessed per row activation
system.mem_ctrls0.bytesPerActivate::384-511          124      2.83%     89.33% # Bytes accessed per row activation
system.mem_ctrls0.bytesPerActivate::512-639           81      1.85%     91.17% # Bytes accessed per row activation
system.mem_ctrls0.bytesPerActivate::640-767           48      1.09%     92.27% # Bytes accessed per row activation
system.mem_ctrls0.bytesPerActivate::768-895           35      0.80%     93.07% # Bytes accessed per row activation
system.mem_ctrls0.bytesPerActivate::896-1023           36      0.82%     93.89% # Bytes accessed per row activation
system.mem_ctrls0.bytesPerActivate::1024-1151          268      6.11%    100.00% # Bytes accessed per row activation
system.mem_ctrls0.bytesPerActivate::total         4385                       # Bytes accessed per row activation
system.mem_ctrls0.rdPerTurnAround::samples          177                       # Reads before turning the bus around for writes
system.mem_ctrls0.rdPerTurnAround::mean    100.231638                       # Reads before turning the bus around for writes
system.mem_ctrls0.rdPerTurnAround::stdev   621.928998                       # Reads before turning the bus around for writes
system.mem_ctrls0.rdPerTurnAround::0-511          174     98.31%     98.31% # Reads before turning the bus around for writes
system.mem_ctrls0.rdPerTurnAround::512-1023            2      1.13%     99.44% # Reads before turning the bus around for writes
system.mem_ctrls0.rdPerTurnAround::8192-8703            1      0.56%    100.00% # Reads before turning the bus around for writes
system.mem_ctrls0.rdPerTurnAround::total          177                       # Reads before turning the bus around for writes
system.mem_ctrls0.wrPerTurnAround::samples          177                       # Writes before turning the bus around for reads
system.mem_ctrls0.wrPerTurnAround::mean     17.661017                       # Writes before turning the bus around for reads
system.mem_ctrls0.wrPerTurnAround::gmean    17.546490                       # Writes before turning the bus around for reads
system.mem_ctrls0.wrPerTurnAround::stdev     2.126218                       # Writes before turning the bus around for reads
system.mem_ctrls0.wrPerTurnAround::16              92     51.98%     51.98% # Writes before turning the bus around for reads
system.mem_ctrls0.wrPerTurnAround::18              26     14.69%     66.67% # Writes before turning the bus around for reads
system.mem_ctrls0.wrPerTurnAround::19              23     12.99%     79.66% # Writes before turning the bus around for reads
system.mem_ctrls0.wrPerTurnAround::20              26     14.69%     94.35% # Writes before turning the bus around for reads
system.mem_ctrls0.wrPerTurnAround::21               6      3.39%     97.74% # Writes before turning the bus around for reads
system.mem_ctrls0.wrPerTurnAround::22               1      0.56%     98.31% # Writes before turning the bus around for reads
system.mem_ctrls0.wrPerTurnAround::25               1      0.56%     98.87% # Writes before turning the bus around for reads
system.mem_ctrls0.wrPerTurnAround::27               1      0.56%     99.44% # Writes before turning the bus around for reads
system.mem_ctrls0.wrPerTurnAround::29               1      0.56%    100.00% # Writes before turning the bus around for reads
system.mem_ctrls0.wrPerTurnAround::total          177                       # Writes before turning the bus around for reads
system.mem_ctrls0.totQLat                   101152250                       # Total ticks spent queuing
system.mem_ctrls0.totMemAccLat              288914750                       # Total ticks spent from burst creation until serviced by the DRAM
system.mem_ctrls0.totBusLat                  50070000                       # Total ticks spent in databus transfers
system.mem_ctrls0.avgQLat                    10101.08                       # Average queueing delay per DRAM burst
system.mem_ctrls0.avgBusLat                   5000.00                       # Average bus latency per DRAM burst
system.mem_ctrls0.avgMemAccLat               28851.08                       # Average memory access latency per DRAM burst
system.mem_ctrls0.avgRdBW                        0.18                       # Average DRAM read bandwidth in MiByte/s
system.mem_ctrls0.avgWrBW                        0.06                       # Average achieved write bandwidth in MiByte/s
system.mem_ctrls0.avgRdBWSys                     0.18                       # Average system read bandwidth in MiByte/s
system.mem_ctrls0.avgWrBWSys                     0.06                       # Average system write bandwidth in MiByte/s
system.mem_ctrls0.peakBW                     12800.00                       # Theoretical peak bandwidth in MiByte/s
system.mem_ctrls0.busUtil                        0.00                       # Data bus utilization in percentage
system.mem_ctrls0.busUtilRead                    0.00                       # Data bus utilization in percentage for reads
system.mem_ctrls0.busUtilWrite                   0.00                       # Data bus utilization in percentage for writes
system.mem_ctrls0.avgRdQLen                      1.00                       # Average read queue length when enqueuing
system.mem_ctrls0.avgWrQLen                     25.40                       # Average write queue length when enqueuing
system.mem_ctrls0.readRowHits                    6685                       # Number of row buffer hits during reads
system.mem_ctrls0.writeRowHits                   2071                       # Number of row buffer hits during writes
system.mem_ctrls0.readRowHitRate                66.76                       # Row buffer hit rate for reads
system.mem_ctrls0.writeRowHitRate               66.04                       # Row buffer hit rate for writes
system.mem_ctrls0.avgGap                 273005866.99                       # Average gap between requests
system.mem_ctrls0.pageHitRate                   66.59                       # Row buffer hit rate, read and write combined
system.mem_ctrls0_0.actEnergy                25031160                       # Energy for activate commands per rank (pJ)
system.mem_ctrls0_0.preEnergy                13657875                       # Energy for precharge commands per rank (pJ)
system.mem_ctrls0_0.readEnergy               68273400                       # Energy for read commands per rank (pJ)
system.mem_ctrls0_0.writeEnergy              10821600                       # Energy for write commands per rank (pJ)
system.mem_ctrls0_0.refreshEnergy        235780112880                       # Energy for refresh commands per rank (pJ)
system.mem_ctrls0_0.actBackEnergy         81235440405                       # Energy for active background per rank (pJ)
system.mem_ctrls0_0.preBackEnergy        2094671748000                       # Energy for precharge background per rank (pJ)
system.mem_ctrls0_0.totalEnergy          2411805085320                       # Total energy per rank (pJ)
system.mem_ctrls0_0.averagePower           668.111364                       # Core power per rank (mW)
system.mem_ctrls0_0.memoryStateTime::IDLE 3482928391000                       # Time in different power states
system.mem_ctrls0_0.memoryStateTime::REF 120426020000                       # Time in different power states
system.mem_ctrls0_0.memoryStateTime::PRE_PDN            0                       # Time in different power states
system.mem_ctrls0_0.memoryStateTime::ACT   3058604000                       # Time in different power states
system.mem_ctrls0_0.memoryStateTime::ACT_PDN            0                       # Time in different power states
system.mem_ctrls0_1.actEnergy                27941760                       # Energy for activate commands per rank (pJ)
system.mem_ctrls0_1.preEnergy                15246000                       # Energy for precharge commands per rank (pJ)
system.mem_ctrls0_1.readEnergy               70207800                       # Energy for read commands per rank (pJ)
system.mem_ctrls0_1.writeEnergy               9434880                       # Energy for write commands per rank (pJ)
system.mem_ctrls0_1.refreshEnergy        235780112880                       # Energy for refresh commands per rank (pJ)
system.mem_ctrls0_1.actBackEnergy         81683987940                       # Energy for active background per rank (pJ)
system.mem_ctrls0_1.preBackEnergy        2094278285250                       # Energy for precharge background per rank (pJ)
system.mem_ctrls0_1.totalEnergy          2411865216510                       # Total energy per rank (pJ)
system.mem_ctrls0_1.averagePower           668.128021                       # Core power per rank (mW)
system.mem_ctrls0_1.memoryStateTime::IDLE 3482658713500                       # Time in different power states
system.mem_ctrls0_1.memoryStateTime::REF 120426020000                       # Time in different power states
system.mem_ctrls0_1.memoryStateTime::PRE_PDN            0                       # Time in different power states
system.mem_ctrls0_1.memoryStateTime::ACT   3327032500                       # Time in different power states
system.mem_ctrls0_1.memoryStateTime::ACT_PDN            0                       # Time in different power states
system.mem_ctrls1.bytes_read::ruby.dir_cntrl1       597376                       # Number of bytes read from this memory
system.mem_ctrls1.bytes_read::total            597376                       # Number of bytes read from this memory
system.mem_ctrls1.bytes_written::ruby.dir_cntrl1       183616                       # Number of bytes written to this memory
system.mem_ctrls1.bytes_written::total         183616                       # Number of bytes written to this memory
system.mem_ctrls1.num_reads::ruby.dir_cntrl1         9334                       # Number of read requests responded to by this memory
system.mem_ctrls1.num_reads::total               9334                       # Number of read requests responded to by this memory
system.mem_ctrls1.num_writes::ruby.dir_cntrl1         2869                       # Number of write requests responded to by this memory
system.mem_ctrls1.num_writes::total              2869                       # Number of write requests responded to by this memory
system.mem_ctrls1.bw_read::ruby.dir_cntrl1       165643                       # Total read bandwidth from this memory (bytes/s)
system.mem_ctrls1.bw_read::total               165643                       # Total read bandwidth from this memory (bytes/s)
system.mem_ctrls1.bw_write::ruby.dir_cntrl1        50914                       # Write bandwidth from this memory (bytes/s)
system.mem_ctrls1.bw_write::total               50914                       # Write bandwidth from this memory (bytes/s)
system.mem_ctrls1.bw_total::ruby.dir_cntrl1       216557                       # Total bandwidth to/from this memory (bytes/s)
system.mem_ctrls1.bw_total::total              216557                       # Total bandwidth to/from this memory (bytes/s)
system.mem_ctrls1.readReqs                       9334                       # Number of read requests accepted
system.mem_ctrls1.writeReqs                      2869                       # Number of write requests accepted
system.mem_ctrls1.readBursts                     9334                       # Number of DRAM read bursts, including those serviced by the write queue
system.mem_ctrls1.writeBursts                    2869                       # Number of DRAM write bursts, including those merged in the write queue
system.mem_ctrls1.bytesReadDRAM                594880                       # Total number of bytes read from DRAM
system.mem_ctrls1.bytesReadWrQ                   2496                       # Total number of bytes read from write queue
system.mem_ctrls1.bytesWritten                 182848                       # Total number of bytes written to DRAM
system.mem_ctrls1.bytesReadSys                 597376                       # Total read bytes from the system interface side
system.mem_ctrls1.bytesWrittenSys              183616                       # Total written bytes from the system interface side
system.mem_ctrls1.servicedByWrQ                    39                       # Number of DRAM read bursts serviced by the write queue
system.mem_ctrls1.mergedWrBursts                    1                       # Number of DRAM write bursts merged with an existing one
system.mem_ctrls1.neitherReadNorWriteReqs            0                       # Number of requests that are neither read nor write
system.mem_ctrls1.perBankRdBursts::0              831                       # Per bank write bursts
system.mem_ctrls1.perBankRdBursts::1              661                       # Per bank write bursts
system.mem_ctrls1.perBankRdBursts::2              406                       # Per bank write bursts
system.mem_ctrls1.perBankRdBursts::3              541                       # Per bank write bursts
system.mem_ctrls1.perBankRdBursts::4              523                       # Per bank write bursts
system.mem_ctrls1.perBankRdBursts::5              647                       # Per bank write bursts
system.mem_ctrls1.perBankRdBursts::6              474                       # Per bank write bursts
system.mem_ctrls1.perBankRdBursts::7              790                       # Per bank write bursts
system.mem_ctrls1.perBankRdBursts::8              431                       # Per bank write bursts
system.mem_ctrls1.perBankRdBursts::9              682                       # Per bank write bursts
system.mem_ctrls1.perBankRdBursts::10             645                       # Per bank write bursts
system.mem_ctrls1.perBankRdBursts::11             457                       # Per bank write bursts
system.mem_ctrls1.perBankRdBursts::12             554                       # Per bank write bursts
system.mem_ctrls1.perBankRdBursts::13             398                       # Per bank write bursts
system.mem_ctrls1.perBankRdBursts::14             530                       # Per bank write bursts
system.mem_ctrls1.perBankRdBursts::15             725                       # Per bank write bursts
system.mem_ctrls1.perBankWrBursts::0              462                       # Per bank write bursts
system.mem_ctrls1.perBankWrBursts::1              242                       # Per bank write bursts
system.mem_ctrls1.perBankWrBursts::2              313                       # Per bank write bursts
system.mem_ctrls1.perBankWrBursts::3              159                       # Per bank write bursts
system.mem_ctrls1.perBankWrBursts::4               20                       # Per bank write bursts
system.mem_ctrls1.perBankWrBursts::5               61                       # Per bank write bursts
system.mem_ctrls1.perBankWrBursts::6               70                       # Per bank write bursts
system.mem_ctrls1.perBankWrBursts::7              176                       # Per bank write bursts
system.mem_ctrls1.perBankWrBursts::8              103                       # Per bank write bursts
system.mem_ctrls1.perBankWrBursts::9              211                       # Per bank write bursts
system.mem_ctrls1.perBankWrBursts::10             261                       # Per bank write bursts
system.mem_ctrls1.perBankWrBursts::11             167                       # Per bank write bursts
system.mem_ctrls1.perBankWrBursts::12             189                       # Per bank write bursts
system.mem_ctrls1.perBankWrBursts::13             112                       # Per bank write bursts
system.mem_ctrls1.perBankWrBursts::14              42                       # Per bank write bursts
system.mem_ctrls1.perBankWrBursts::15             269                       # Per bank write bursts
system.mem_ctrls1.numRdRetry                        0                       # Number of times read queue was full causing retry
system.mem_ctrls1.numWrRetry                        0                       # Number of times write queue was full causing retry
system.mem_ctrls1.totGap                 3606407822000                       # Total gap between requests
system.mem_ctrls1.readPktSize::0                    0                       # Read request sizes (log2)
system.mem_ctrls1.readPktSize::1                    0                       # Read request sizes (log2)
system.mem_ctrls1.readPktSize::2                    0                       # Read request sizes (log2)
system.mem_ctrls1.readPktSize::3                    0                       # Read request sizes (log2)
system.mem_ctrls1.readPktSize::4                    0                       # Read request sizes (log2)
system.mem_ctrls1.readPktSize::5                    0                       # Read request sizes (log2)
system.mem_ctrls1.readPktSize::6                 9334                       # Read request sizes (log2)
system.mem_ctrls1.writePktSize::0                   0                       # Write request sizes (log2)
system.mem_ctrls1.writePktSize::1                   0                       # Write request sizes (log2)
system.mem_ctrls1.writePktSize::2                   0                       # Write request sizes (log2)
system.mem_ctrls1.writePktSize::3                   0                       # Write request sizes (log2)
system.mem_ctrls1.writePktSize::4                   0                       # Write request sizes (log2)
system.mem_ctrls1.writePktSize::5                   0                       # Write request sizes (log2)
system.mem_ctrls1.writePktSize::6                2869                       # Write request sizes (log2)
system.mem_ctrls1.rdQLenPdf::0                   9263                       # What read queue length does an incoming req see
system.mem_ctrls1.rdQLenPdf::1                     32                       # What read queue length does an incoming req see
system.mem_ctrls1.rdQLenPdf::2                      0                       # What read queue length does an incoming req see
system.mem_ctrls1.rdQLenPdf::3                      0                       # What read queue length does an incoming req see
system.mem_ctrls1.rdQLenPdf::4                      0                       # What read queue length does an incoming req see
system.mem_ctrls1.rdQLenPdf::5                      0                       # What read queue length does an incoming req see
system.mem_ctrls1.rdQLenPdf::6                      0                       # What read queue length does an incoming req see
system.mem_ctrls1.rdQLenPdf::7                      0                       # What read queue length does an incoming req see
system.mem_ctrls1.rdQLenPdf::8                      0                       # What read queue length does an incoming req see
system.mem_ctrls1.rdQLenPdf::9                      0                       # What read queue length does an incoming req see
system.mem_ctrls1.rdQLenPdf::10                     0                       # What read queue length does an incoming req see
system.mem_ctrls1.rdQLenPdf::11                     0                       # What read queue length does an incoming req see
system.mem_ctrls1.rdQLenPdf::12                     0                       # What read queue length does an incoming req see
system.mem_ctrls1.rdQLenPdf::13                     0                       # What read queue length does an incoming req see
system.mem_ctrls1.rdQLenPdf::14                     0                       # What read queue length does an incoming req see
system.mem_ctrls1.rdQLenPdf::15                     0                       # What read queue length does an incoming req see
system.mem_ctrls1.rdQLenPdf::16                     0                       # What read queue length does an incoming req see
system.mem_ctrls1.rdQLenPdf::17                     0                       # What read queue length does an incoming req see
system.mem_ctrls1.rdQLenPdf::18                     0                       # What read queue length does an incoming req see
system.mem_ctrls1.rdQLenPdf::19                     0                       # What read queue length does an incoming req see
system.mem_ctrls1.rdQLenPdf::20                     0                       # What read queue length does an incoming req see
system.mem_ctrls1.rdQLenPdf::21                     0                       # What read queue length does an incoming req see
system.mem_ctrls1.rdQLenPdf::22                     0                       # What read queue length does an incoming req see
system.mem_ctrls1.rdQLenPdf::23                     0                       # What read queue length does an incoming req see
system.mem_ctrls1.rdQLenPdf::24                     0                       # What read queue length does an incoming req see
system.mem_ctrls1.rdQLenPdf::25                     0                       # What read queue length does an incoming req see
system.mem_ctrls1.rdQLenPdf::26                     0                       # What read queue length does an incoming req see
system.mem_ctrls1.rdQLenPdf::27                     0                       # What read queue length does an incoming req see
system.mem_ctrls1.rdQLenPdf::28                     0                       # What read queue length does an incoming req see
system.mem_ctrls1.rdQLenPdf::29                     0                       # What read queue length does an incoming req see
system.mem_ctrls1.rdQLenPdf::30                     0                       # What read queue length does an incoming req see
system.mem_ctrls1.rdQLenPdf::31                     0                       # What read queue length does an incoming req see
system.mem_ctrls1.wrQLenPdf::0                      0                       # What write queue length does an incoming req see
system.mem_ctrls1.wrQLenPdf::1                      0                       # What write queue length does an incoming req see
system.mem_ctrls1.wrQLenPdf::2                      0                       # What write queue length does an incoming req see
system.mem_ctrls1.wrQLenPdf::3                      0                       # What write queue length does an incoming req see
system.mem_ctrls1.wrQLenPdf::4                      0                       # What write queue length does an incoming req see
system.mem_ctrls1.wrQLenPdf::5                      0                       # What write queue length does an incoming req see
system.mem_ctrls1.wrQLenPdf::6                      0                       # What write queue length does an incoming req see
system.mem_ctrls1.wrQLenPdf::7                      0                       # What write queue length does an incoming req see
system.mem_ctrls1.wrQLenPdf::8                      0                       # What write queue length does an incoming req see
system.mem_ctrls1.wrQLenPdf::9                      0                       # What write queue length does an incoming req see
system.mem_ctrls1.wrQLenPdf::10                     0                       # What write queue length does an incoming req see
system.mem_ctrls1.wrQLenPdf::11                     0                       # What write queue length does an incoming req see
system.mem_ctrls1.wrQLenPdf::12                     0                       # What write queue length does an incoming req see
system.mem_ctrls1.wrQLenPdf::13                     0                       # What write queue length does an incoming req see
system.mem_ctrls1.wrQLenPdf::14                     0                       # What write queue length does an incoming req see
system.mem_ctrls1.wrQLenPdf::15                    75                       # What write queue length does an incoming req see
system.mem_ctrls1.wrQLenPdf::16                    77                       # What write queue length does an incoming req see
system.mem_ctrls1.wrQLenPdf::17                   173                       # What write queue length does an incoming req see
system.mem_ctrls1.wrQLenPdf::18                   169                       # What write queue length does an incoming req see
system.mem_ctrls1.wrQLenPdf::19                   184                       # What write queue length does an incoming req see
system.mem_ctrls1.wrQLenPdf::20                   166                       # What write queue length does an incoming req see
system.mem_ctrls1.wrQLenPdf::21                   180                       # What write queue length does an incoming req see
system.mem_ctrls1.wrQLenPdf::22                   185                       # What write queue length does an incoming req see
system.mem_ctrls1.wrQLenPdf::23                   167                       # What write queue length does an incoming req see
system.mem_ctrls1.wrQLenPdf::24                   164                       # What write queue length does an incoming req see
system.mem_ctrls1.wrQLenPdf::25                   170                       # What write queue length does an incoming req see
system.mem_ctrls1.wrQLenPdf::26                   165                       # What write queue length does an incoming req see
system.mem_ctrls1.wrQLenPdf::27                   165                       # What write queue length does an incoming req see
system.mem_ctrls1.wrQLenPdf::28                   165                       # What write queue length does an incoming req see
system.mem_ctrls1.wrQLenPdf::29                   165                       # What write queue length does an incoming req see
system.mem_ctrls1.wrQLenPdf::30                   164                       # What write queue length does an incoming req see
system.mem_ctrls1.wrQLenPdf::31                   163                       # What write queue length does an incoming req see
system.mem_ctrls1.wrQLenPdf::32                   163                       # What write queue length does an incoming req see
system.mem_ctrls1.wrQLenPdf::33                     3                       # What write queue length does an incoming req see
system.mem_ctrls1.wrQLenPdf::34                     2                       # What write queue length does an incoming req see
system.mem_ctrls1.wrQLenPdf::35                     1                       # What write queue length does an incoming req see
system.mem_ctrls1.wrQLenPdf::36                     1                       # What write queue length does an incoming req see
system.mem_ctrls1.wrQLenPdf::37                     1                       # What write queue length does an incoming req see
system.mem_ctrls1.wrQLenPdf::38                     0                       # What write queue length does an incoming req see
system.mem_ctrls1.wrQLenPdf::39                     0                       # What write queue length does an incoming req see
system.mem_ctrls1.wrQLenPdf::40                     0                       # What write queue length does an incoming req see
system.mem_ctrls1.wrQLenPdf::41                     0                       # What write queue length does an incoming req see
system.mem_ctrls1.wrQLenPdf::42                     0                       # What write queue length does an incoming req see
system.mem_ctrls1.wrQLenPdf::43                     0                       # What write queue length does an incoming req see
system.mem_ctrls1.wrQLenPdf::44                     0                       # What write queue length does an incoming req see
system.mem_ctrls1.wrQLenPdf::45                     0                       # What write queue length does an incoming req see
system.mem_ctrls1.wrQLenPdf::46                     0                       # What write queue length does an incoming req see
system.mem_ctrls1.wrQLenPdf::47                     0                       # What write queue length does an incoming req see
system.mem_ctrls1.wrQLenPdf::48                     0                       # What write queue length does an incoming req see
system.mem_ctrls1.wrQLenPdf::49                     0                       # What write queue length does an incoming req see
system.mem_ctrls1.wrQLenPdf::50                     0                       # What write queue length does an incoming req see
system.mem_ctrls1.wrQLenPdf::51                     0                       # What write queue length does an incoming req see
system.mem_ctrls1.wrQLenPdf::52                     0                       # What write queue length does an incoming req see
system.mem_ctrls1.wrQLenPdf::53                     0                       # What write queue length does an incoming req see
system.mem_ctrls1.wrQLenPdf::54                     0                       # What write queue length does an incoming req see
system.mem_ctrls1.wrQLenPdf::55                     0                       # What write queue length does an incoming req see
system.mem_ctrls1.wrQLenPdf::56                     0                       # What write queue length does an incoming req see
system.mem_ctrls1.wrQLenPdf::57                     0                       # What write queue length does an incoming req see
system.mem_ctrls1.wrQLenPdf::58                     0                       # What write queue length does an incoming req see
system.mem_ctrls1.wrQLenPdf::59                     0                       # What write queue length does an incoming req see
system.mem_ctrls1.wrQLenPdf::60                     0                       # What write queue length does an incoming req see
system.mem_ctrls1.wrQLenPdf::61                     0                       # What write queue length does an incoming req see
system.mem_ctrls1.wrQLenPdf::62                     0                       # What write queue length does an incoming req see
system.mem_ctrls1.wrQLenPdf::63                     0                       # What write queue length does an incoming req see
system.mem_ctrls1.bytesPerActivate::samples         3746                       # Bytes accessed per row activation
system.mem_ctrls1.bytesPerActivate::mean   207.615590                       # Bytes accessed per row activation
system.mem_ctrls1.bytesPerActivate::gmean   121.918501                       # Bytes accessed per row activation
system.mem_ctrls1.bytesPerActivate::stdev   274.658845                       # Bytes accessed per row activation
system.mem_ctrls1.bytesPerActivate::0-127         2153     57.47%     57.47% # Bytes accessed per row activation
system.mem_ctrls1.bytesPerActivate::128-255          768     20.50%     77.98% # Bytes accessed per row activation
system.mem_ctrls1.bytesPerActivate::256-383          241      6.43%     84.41% # Bytes accessed per row activation
system.mem_ctrls1.bytesPerActivate::384-511          124      3.31%     87.72% # Bytes accessed per row activation
system.mem_ctrls1.bytesPerActivate::512-639           75      2.00%     89.72% # Bytes accessed per row activation
system.mem_ctrls1.bytesPerActivate::640-767           39      1.04%     90.76% # Bytes accessed per row activation
system.mem_ctrls1.bytesPerActivate::768-895           49      1.31%     92.07% # Bytes accessed per row activation
system.mem_ctrls1.bytesPerActivate::896-1023           24      0.64%     92.71% # Bytes accessed per row activation
system.mem_ctrls1.bytesPerActivate::1024-1151          273      7.29%    100.00% # Bytes accessed per row activation
system.mem_ctrls1.bytesPerActivate::total         3746                       # Bytes accessed per row activation
system.mem_ctrls1.rdPerTurnAround::samples          162                       # Reads before turning the bus around for writes
system.mem_ctrls1.rdPerTurnAround::mean    104.870370                       # Reads before turning the bus around for writes
system.mem_ctrls1.rdPerTurnAround::stdev   646.650242                       # Reads before turning the bus around for writes
system.mem_ctrls1.rdPerTurnAround::0-255          155     95.68%     95.68% # Reads before turning the bus around for writes
system.mem_ctrls1.rdPerTurnAround::256-511            5      3.09%     98.77% # Reads before turning the bus around for writes
system.mem_ctrls1.rdPerTurnAround::768-1023            1      0.62%     99.38% # Reads before turning the bus around for writes
system.mem_ctrls1.rdPerTurnAround::7936-8191            1      0.62%    100.00% # Reads before turning the bus around for writes
system.mem_ctrls1.rdPerTurnAround::total          162                       # Reads before turning the bus around for writes
system.mem_ctrls1.wrPerTurnAround::samples          162                       # Writes before turning the bus around for reads
system.mem_ctrls1.wrPerTurnAround::mean     17.635802                       # Writes before turning the bus around for reads
system.mem_ctrls1.wrPerTurnAround::gmean    17.522809                       # Writes before turning the bus around for reads
system.mem_ctrls1.wrPerTurnAround::stdev     2.111066                       # Writes before turning the bus around for reads
system.mem_ctrls1.wrPerTurnAround::16              85     52.47%     52.47% # Writes before turning the bus around for reads
system.mem_ctrls1.wrPerTurnAround::17               1      0.62%     53.09% # Writes before turning the bus around for reads
system.mem_ctrls1.wrPerTurnAround::18              22     13.58%     66.67% # Writes before turning the bus around for reads
system.mem_ctrls1.wrPerTurnAround::19              22     13.58%     80.25% # Writes before turning the bus around for reads
system.mem_ctrls1.wrPerTurnAround::20              22     13.58%     93.83% # Writes before turning the bus around for reads
system.mem_ctrls1.wrPerTurnAround::21               6      3.70%     97.53% # Writes before turning the bus around for reads
system.mem_ctrls1.wrPerTurnAround::22               2      1.23%     98.77% # Writes before turning the bus around for reads
system.mem_ctrls1.wrPerTurnAround::27               1      0.62%     99.38% # Writes before turning the bus around for reads
system.mem_ctrls1.wrPerTurnAround::29               1      0.62%    100.00% # Writes before turning the bus around for reads
system.mem_ctrls1.wrPerTurnAround::total          162                       # Writes before turning the bus around for reads
system.mem_ctrls1.totQLat                    88899750                       # Total ticks spent queuing
system.mem_ctrls1.totMemAccLat              263181000                       # Total ticks spent from burst creation until serviced by the DRAM
system.mem_ctrls1.totBusLat                  46475000                       # Total ticks spent in databus transfers
system.mem_ctrls1.avgQLat                     9564.25                       # Average queueing delay per DRAM burst
system.mem_ctrls1.avgBusLat                   5000.00                       # Average bus latency per DRAM burst
system.mem_ctrls1.avgMemAccLat               28314.25                       # Average memory access latency per DRAM burst
system.mem_ctrls1.avgRdBW                        0.16                       # Average DRAM read bandwidth in MiByte/s
system.mem_ctrls1.avgWrBW                        0.05                       # Average achieved write bandwidth in MiByte/s
system.mem_ctrls1.avgRdBWSys                     0.17                       # Average system read bandwidth in MiByte/s
system.mem_ctrls1.avgWrBWSys                     0.05                       # Average system write bandwidth in MiByte/s
system.mem_ctrls1.peakBW                     12800.00                       # Theoretical peak bandwidth in MiByte/s
system.mem_ctrls1.busUtil                        0.00                       # Data bus utilization in percentage
system.mem_ctrls1.busUtilRead                    0.00                       # Data bus utilization in percentage for reads
system.mem_ctrls1.busUtilWrite                   0.00                       # Data bus utilization in percentage for writes
system.mem_ctrls1.avgRdQLen                      1.00                       # Average read queue length when enqueuing
system.mem_ctrls1.avgWrQLen                     24.91                       # Average write queue length when enqueuing
system.mem_ctrls1.readRowHits                    6376                       # Number of row buffer hits during reads
system.mem_ctrls1.writeRowHits                   2031                       # Number of row buffer hits during writes
system.mem_ctrls1.readRowHitRate                68.60                       # Row buffer hit rate for reads
system.mem_ctrls1.writeRowHitRate               70.82                       # Row buffer hit rate for writes
system.mem_ctrls1.avgGap                 295534526.10                       # Average gap between requests
system.mem_ctrls1.pageHitRate                   69.12                       # Row buffer hit rate, read and write combined
system.mem_ctrls1_0.actEnergy                22536360                       # Energy for activate commands per rank (pJ)
system.mem_ctrls1_0.preEnergy                12296625                       # Energy for precharge commands per rank (pJ)
system.mem_ctrls1_0.readEnergy               65426400                       # Energy for read commands per rank (pJ)
system.mem_ctrls1_0.writeEnergy               9739440                       # Energy for write commands per rank (pJ)
system.mem_ctrls1_0.refreshEnergy        235780112880                       # Energy for refresh commands per rank (pJ)
system.mem_ctrls1_0.actBackEnergy         81236249235                       # Energy for active background per rank (pJ)
system.mem_ctrls1_0.preBackEnergy        2094671038500                       # Energy for precharge background per rank (pJ)
system.mem_ctrls1_0.totalEnergy          2411797399440                       # Total energy per rank (pJ)
system.mem_ctrls1_0.averagePower           668.109234                       # Core power per rank (mW)
system.mem_ctrls1_0.memoryStateTime::IDLE 3482995865750                       # Time in different power states
system.mem_ctrls1_0.memoryStateTime::REF 120426020000                       # Time in different power states
system.mem_ctrls1_0.memoryStateTime::PRE_PDN            0                       # Time in different power states
system.mem_ctrls1_0.memoryStateTime::ACT   2991059250                       # Time in different power states
system.mem_ctrls1_0.memoryStateTime::ACT_PDN            0                       # Time in different power states
system.mem_ctrls1_1.actEnergy                25439400                       # Energy for activate commands per rank (pJ)
system.mem_ctrls1_1.preEnergy                13880625                       # Energy for precharge commands per rank (pJ)
system.mem_ctrls1_1.readEnergy               67251600                       # Energy for read commands per rank (pJ)
system.mem_ctrls1_1.writeEnergy               8773920                       # Energy for write commands per rank (pJ)
system.mem_ctrls1_1.refreshEnergy        235780112880                       # Energy for refresh commands per rank (pJ)
system.mem_ctrls1_1.actBackEnergy         81659559735                       # Energy for active background per rank (pJ)
system.mem_ctrls1_1.preBackEnergy        2094299713500                       # Energy for precharge background per rank (pJ)
system.mem_ctrls1_1.totalEnergy          2411854731660                       # Total energy per rank (pJ)
system.mem_ctrls1_1.averagePower           668.125116                       # Core power per rank (mW)
system.mem_ctrls1_1.memoryStateTime::IDLE 3482717430250                       # Time in different power states
system.mem_ctrls1_1.memoryStateTime::REF 120426020000                       # Time in different power states
system.mem_ctrls1_1.memoryStateTime::PRE_PDN            0                       # Time in different power states
system.mem_ctrls1_1.memoryStateTime::ACT   3267944250                       # Time in different power states
system.mem_ctrls1_1.memoryStateTime::ACT_PDN            0                       # Time in different power states
system.cpu_voltage_domain.voltage                   1                       # Voltage in Volts
system.cpu_clk_domain.clock                       500                       # Clock period in ticks
system.cpu0.apic_clk_domain.clock                8000                       # Clock period in ticks
system.cpu0.numCycles                      7213232286                       # number of cpu cycles simulated
system.cpu0.numWorkItemsStarted                     0                       # number of work items this cpu started
system.cpu0.numWorkItemsCompleted                   0                       # number of work items this cpu completed
system.cpu0.kern.inst.arm                           0                       # number of arm instructions executed
system.cpu0.kern.inst.quiesce                       0                       # number of quiesce instructions executed
system.cpu0.committedInsts                   19524993                       # Number of instructions committed
system.cpu0.committedOps                     34615929                       # Number of ops (including micro ops) committed
system.cpu0.num_int_alu_accesses             29216409                       # Number of integer alu accesses
system.cpu0.num_fp_alu_accesses               8399337                       # Number of float alu accesses
system.cpu0.num_func_calls                     612729                       # number of times a function call or return occured
system.cpu0.num_conditional_control_insts      2056575                       # number of instructions that are conditional controls
system.cpu0.num_int_insts                    29216409                       # number of integer instructions
system.cpu0.num_fp_insts                      8399337                       # number of float instructions
system.cpu0.num_int_register_reads           56402364                       # number of times the integer registers were read
system.cpu0.num_int_register_writes          22243561                       # number of times the integer registers were written
system.cpu0.num_fp_register_reads            14064330                       # number of times the floating registers were read
system.cpu0.num_fp_register_writes            7474281                       # number of times the floating registers were written
system.cpu0.num_cc_register_reads            14167244                       # number of times the CC registers were read
system.cpu0.num_cc_register_writes           10447206                       # number of times the CC registers were written
system.cpu0.num_mem_refs                      7748223                       # number of memory refs
system.cpu0.num_load_insts                    5753456                       # Number of load instructions
system.cpu0.num_store_insts                   1994767                       # Number of store instructions
system.cpu0.num_idle_cycles              7140789592.435254                       # Number of idle cycles
system.cpu0.num_busy_cycles              72442693.564746                       # Number of busy cycles
system.cpu0.not_idle_fraction                0.010043                       # Percentage of non-idle cycles
system.cpu0.idle_fraction                    0.989957                       # Percentage of idle cycles
system.cpu0.Branches                          2825272                       # Number of branches fetched
system.cpu0.op_class::No_OpClass               120881      0.35%      0.35% # Class of executed instruction
system.cpu0.op_class::IntAlu                 22876943     66.09%     66.44% # Class of executed instruction
system.cpu0.op_class::IntMult                  213706      0.62%     67.05% # Class of executed instruction
system.cpu0.op_class::IntDiv                    38013      0.11%     67.16% # Class of executed instruction
system.cpu0.op_class::FloatAdd                3618219     10.45%     77.62% # Class of executed instruction
system.cpu0.op_class::FloatCmp                      0      0.00%     77.62% # Class of executed instruction
system.cpu0.op_class::FloatCvt                      0      0.00%     77.62% # Class of executed instruction
system.cpu0.op_class::FloatMult                     0      0.00%     77.62% # Class of executed instruction
system.cpu0.op_class::FloatDiv                      0      0.00%     77.62% # Class of executed instruction
system.cpu0.op_class::FloatSqrt                     0      0.00%     77.62% # Class of executed instruction
system.cpu0.op_class::SimdAdd                       0      0.00%     77.62% # Class of executed instruction
system.cpu0.op_class::SimdAddAcc                    0      0.00%     77.62% # Class of executed instruction
system.cpu0.op_class::SimdAlu                       0      0.00%     77.62% # Class of executed instruction
system.cpu0.op_class::SimdCmp                       0      0.00%     77.62% # Class of executed instruction
system.cpu0.op_class::SimdCvt                       0      0.00%     77.62% # Class of executed instruction
system.cpu0.op_class::SimdMisc                      0      0.00%     77.62% # Class of executed instruction
system.cpu0.op_class::SimdMult                      0      0.00%     77.62% # Class of executed instruction
system.cpu0.op_class::SimdMultAcc                   0      0.00%     77.62% # Class of executed instruction
system.cpu0.op_class::SimdShift                     0      0.00%     77.62% # Class of executed instruction
system.cpu0.op_class::SimdShiftAcc                  0      0.00%     77.62% # Class of executed instruction
system.cpu0.op_class::SimdSqrt                      0      0.00%     77.62% # Class of executed instruction
system.cpu0.op_class::SimdFloatAdd                  0      0.00%     77.62% # Class of executed instruction
system.cpu0.op_class::SimdFloatAlu                  0      0.00%     77.62% # Class of executed instruction
system.cpu0.op_class::SimdFloatCmp                  0      0.00%     77.62% # Class of executed instruction
system.cpu0.op_class::SimdFloatCvt                  0      0.00%     77.62% # Class of executed instruction
system.cpu0.op_class::SimdFloatDiv                  0      0.00%     77.62% # Class of executed instruction
system.cpu0.op_class::SimdFloatMisc                 0      0.00%     77.62% # Class of executed instruction
system.cpu0.op_class::SimdFloatMult                 0      0.00%     77.62% # Class of executed instruction
system.cpu0.op_class::SimdFloatMultAcc              0      0.00%     77.62% # Class of executed instruction
system.cpu0.op_class::SimdFloatSqrt                 0      0.00%     77.62% # Class of executed instruction
system.cpu0.op_class::MemRead                 5753456     16.62%     94.24% # Class of executed instruction
system.cpu0.op_class::MemWrite                1994767      5.76%    100.00% # Class of executed instruction
system.cpu0.op_class::IprAccess                     0      0.00%    100.00% # Class of executed instruction
system.cpu0.op_class::InstPrefetch                  0      0.00%    100.00% # Class of executed instruction
system.cpu0.op_class::total                  34615985                       # Class of executed instruction
system.cpu1.apic_clk_domain.clock                8000                       # Clock period in ticks
system.cpu1.numCycles                      7213780359                       # number of cpu cycles simulated
system.cpu1.numWorkItemsStarted                     0                       # number of work items this cpu started
system.cpu1.numWorkItemsCompleted                   0                       # number of work items this cpu completed
system.cpu1.kern.inst.arm                           0                       # number of arm instructions executed
system.cpu1.kern.inst.quiesce                       0                       # number of quiesce instructions executed
system.cpu1.committedInsts                 1994017093                       # Number of instructions committed
system.cpu1.committedOps                   3391963755                       # Number of ops (including micro ops) committed
system.cpu1.num_int_alu_accesses           2756625377                       # Number of integer alu accesses
system.cpu1.num_fp_alu_accesses            1010088517                       # Number of float alu accesses
system.cpu1.num_func_calls                   49907555                       # number of times a function call or return occured
system.cpu1.num_conditional_control_insts    199772628                       # number of instructions that are conditional controls
system.cpu1.num_int_insts                  2756625377                       # number of integer instructions
system.cpu1.num_fp_insts                   1010088517                       # number of float instructions
system.cpu1.num_int_register_reads         5216414202                       # number of times the integer registers were read
system.cpu1.num_int_register_writes        2051837342                       # number of times the integer registers were written
system.cpu1.num_fp_register_reads          1701898740                       # number of times the floating registers were read
system.cpu1.num_fp_register_writes          899765659                       # number of times the floating registers were written
system.cpu1.num_cc_register_reads          1288190518                       # number of times the CC registers were read
system.cpu1.num_cc_register_writes         1039074088                       # number of times the CC registers were written
system.cpu1.num_mem_refs                    738022868                       # number of memory refs
system.cpu1.num_load_insts                  571677142                       # Number of load instructions
system.cpu1.num_store_insts                 166345726                       # Number of store instructions
system.cpu1.num_idle_cycles              64063622.334285                       # Number of idle cycles
system.cpu1.num_busy_cycles              7149716736.665715                       # Number of busy cycles
system.cpu1.not_idle_fraction                0.991119                       # Percentage of non-idle cycles
system.cpu1.idle_fraction                    0.008881                       # Percentage of idle cycles
system.cpu1.Branches                        261084364                       # Number of branches fetched
system.cpu1.op_class::No_OpClass              1505702      0.04%      0.04% # Class of executed instruction
system.cpu1.op_class::IntAlu               2188565949     64.52%     64.57% # Class of executed instruction
system.cpu1.op_class::IntMult                24039764      0.71%     65.28% # Class of executed instruction
system.cpu1.op_class::IntDiv                   210259      0.01%     65.28% # Class of executed instruction
system.cpu1.op_class::FloatAdd              439619365     12.96%     78.24% # Class of executed instruction
system.cpu1.op_class::FloatCmp                      0      0.00%     78.24% # Class of executed instruction
system.cpu1.op_class::FloatCvt                      0      0.00%     78.24% # Class of executed instruction
system.cpu1.op_class::FloatMult                     0      0.00%     78.24% # Class of executed instruction
system.cpu1.op_class::FloatDiv                      0      0.00%     78.24% # Class of executed instruction
system.cpu1.op_class::FloatSqrt                     0      0.00%     78.24% # Class of executed instruction
system.cpu1.op_class::SimdAdd                       0      0.00%     78.24% # Class of executed instruction
system.cpu1.op_class::SimdAddAcc                    0      0.00%     78.24% # Class of executed instruction
system.cpu1.op_class::SimdAlu                       0      0.00%     78.24% # Class of executed instruction
system.cpu1.op_class::SimdCmp                       0      0.00%     78.24% # Class of executed instruction
system.cpu1.op_class::SimdCvt                       0      0.00%     78.24% # Class of executed instruction
system.cpu1.op_class::SimdMisc                      0      0.00%     78.24% # Class of executed instruction
system.cpu1.op_class::SimdMult                      0      0.00%     78.24% # Class of executed instruction
system.cpu1.op_class::SimdMultAcc                   0      0.00%     78.24% # Class of executed instruction
system.cpu1.op_class::SimdShift                     0      0.00%     78.24% # Class of executed instruction
system.cpu1.op_class::SimdShiftAcc                  0      0.00%     78.24% # Class of executed instruction
system.cpu1.op_class::SimdSqrt                      0      0.00%     78.24% # Class of executed instruction
system.cpu1.op_class::SimdFloatAdd                  0      0.00%     78.24% # Class of executed instruction
system.cpu1.op_class::SimdFloatAlu                  0      0.00%     78.24% # Class of executed instruction
system.cpu1.op_class::SimdFloatCmp                  0      0.00%     78.24% # Class of executed instruction
system.cpu1.op_class::SimdFloatCvt                  0      0.00%     78.24% # Class of executed instruction
system.cpu1.op_class::SimdFloatDiv                  0      0.00%     78.24% # Class of executed instruction
system.cpu1.op_class::SimdFloatMisc                 0      0.00%     78.24% # Class of executed instruction
system.cpu1.op_class::SimdFloatMult                 0      0.00%     78.24% # Class of executed instruction
system.cpu1.op_class::SimdFloatMultAcc              0      0.00%     78.24% # Class of executed instruction
system.cpu1.op_class::SimdFloatSqrt                 0      0.00%     78.24% # Class of executed instruction
system.cpu1.op_class::MemRead               571677142     16.85%     95.10% # Class of executed instruction
system.cpu1.op_class::MemWrite              166345726      4.90%    100.00% # Class of executed instruction
system.cpu1.op_class::IprAccess                     0      0.00%    100.00% # Class of executed instruction
system.cpu1.op_class::InstPrefetch                  0      0.00%    100.00% # Class of executed instruction
system.cpu1.op_class::total                3391963907                       # Class of executed instruction
system.cpu2.apic_clk_domain.clock                8000                       # Clock period in ticks
system.cpu2.numCycles                      7212474565                       # number of cpu cycles simulated
system.cpu2.numWorkItemsStarted                     0                       # number of work items this cpu started
system.cpu2.numWorkItemsCompleted                   0                       # number of work items this cpu completed
system.cpu2.kern.inst.arm                           0                       # number of arm instructions executed
system.cpu2.kern.inst.quiesce                       0                       # number of quiesce instructions executed
system.cpu2.committedInsts                    2581515                       # Number of instructions committed
system.cpu2.committedOps                      5566826                       # Number of ops (including micro ops) committed
system.cpu2.num_int_alu_accesses              5444204                       # Number of integer alu accesses
system.cpu2.num_fp_alu_accesses                     0                       # Number of float alu accesses
system.cpu2.num_func_calls                     152959                       # number of times a function call or return occured
system.cpu2.num_conditional_control_insts       393136                       # number of instructions that are conditional controls
system.cpu2.num_int_insts                     5444204                       # number of integer instructions
system.cpu2.num_fp_insts                            0                       # number of float instructions
system.cpu2.num_int_register_reads           11057379                       # number of times the integer registers were read
system.cpu2.num_int_register_writes           4519148                       # number of times the integer registers were written
system.cpu2.num_fp_register_reads                   0                       # number of times the floating registers were read
system.cpu2.num_fp_register_writes                  0                       # number of times the floating registers were written
system.cpu2.num_cc_register_reads             3142453                       # number of times the CC registers were read
system.cpu2.num_cc_register_writes            1654419                       # number of times the CC registers were written
system.cpu2.num_mem_refs                      1324078                       # number of memory refs
system.cpu2.num_load_insts                     825118                       # Number of load instructions
system.cpu2.num_store_insts                    498960                       # Number of store instructions
system.cpu2.num_idle_cycles              7201711232.673794                       # Number of idle cycles
system.cpu2.num_busy_cycles              10763332.326206                       # Number of busy cycles
system.cpu2.not_idle_fraction                0.001492                       # Percentage of non-idle cycles
system.cpu2.idle_fraction                    0.998508                       # Percentage of idle cycles
[...]
system.ruby.DMA_Controller.Data::total             96                      
system.ruby.DMA_Controller.Ack           |        3008    100.00%    100.00% |           0      0.00%    100.00%
system.ruby.DMA_Controller.Ack::total            3008                      
system.ruby.DMA_Controller.READY.ReadRequest |          96    100.00%    100.00% |           0      0.00%    100.00%
system.ruby.DMA_Controller.READY.ReadRequest::total           96                      
system.ruby.DMA_Controller.READY.WriteRequest |        3008    100.00%    100.00% |           0      0.00%    100.00%
system.ruby.DMA_Controller.READY.WriteRequest::total         3008                      
system.ruby.DMA_Controller.BUSY_RD.Data  |          96    100.00%    100.00% |           0      0.00%    100.00%
system.ruby.DMA_Controller.BUSY_RD.Data::total           96                      
system.ruby.DMA_Controller.BUSY_WR.Ack   |        3008    100.00%    100.00% |           0      0.00%    100.00%
system.ruby.DMA_Controller.BUSY_WR.Ack::total         3008                      
system.ruby.L1Cache_Controller.Load      |     6310180      1.10%      1.10% |   566471464     98.46%     99.56% |      998206      0.17%     99.73% |     1558698      0.27%    100.00%
system.ruby.L1Cache_Controller.Load::total    575338548                      
system.ruby.L1Cache_Controller.Ifetch    |    30930879      0.00%      0.00% |18446744072222035968    100.00%    100.00% |     4502417      0.00%    100.00% |     7807667      0.00%    100.00%
system.ruby.L1Cache_Controller.Ifetch::total 18446744072265275392                      
system.ruby.L1Cache_Controller.Store     |     2668068      1.51%      1.51% |   172355651     97.43%     98.94% |      723811      0.41%     99.35% |     1155624      0.65%    100.00%
system.ruby.L1Cache_Controller.Store::total    176903154                      
system.ruby.L1Cache_Controller.Inv       |       16851     25.26%     25.26% |       11265     16.89%     42.14% |       18996     28.47%     70.62% |       19603     29.38%    100.00%
system.ruby.L1Cache_Controller.Inv::total        66715                      
system.ruby.L1Cache_Controller.L1_Replacement |      146582      3.75%      3.75% |     3567120     91.24%     94.98% |       66673      1.71%     96.69% |      129435      3.31%    100.00%
system.ruby.L1Cache_Controller.L1_Replacement::total      3909810                      
system.ruby.L1Cache_Controller.Fwd_GETX  |        2055     26.43%     26.43% |        2532     32.56%     58.99% |        1381     17.76%     76.75% |        1808     23.25%    100.00%
system.ruby.L1Cache_Controller.Fwd_GETX::total         7776                      
system.ruby.L1Cache_Controller.Fwd_GETS  |       10237     38.01%     38.01% |        3247     12.06%     50.07% |        7511     27.89%     77.96% |        5934     22.04%    100.00%
system.ruby.L1Cache_Controller.Fwd_GETS::total        26929                      
system.ruby.L1Cache_Controller.Data      |         931     20.67%     20.67% |         857     19.02%     39.69% |        1673     37.14%     76.83% |        1044     23.17%    100.00%
system.ruby.L1Cache_Controller.Data::total         4505                      
system.ruby.L1Cache_Controller.Data_Exclusive |       29665      2.80%      2.80% |      983366     92.93%     95.73% |       12653      1.20%     96.92% |       32549      3.08%    100.00%
system.ruby.L1Cache_Controller.Data_Exclusive::total      1058233                      
system.ruby.L1Cache_Controller.DataS_fromL1 |        5890     21.87%     21.87% |        7552     28.04%     49.92% |        5808     21.57%     71.48% |        7679     28.52%    100.00%
system.ruby.L1Cache_Controller.DataS_fromL1::total        26929                      
system.ruby.L1Cache_Controller.Data_all_Acks |      112418      3.95%      3.95% |     2581283     90.77%     94.72% |       54641      1.92%     96.64% |       95513      3.36%    100.00%
system.ruby.L1Cache_Controller.Data_all_Acks::total      2843855                      
system.ruby.L1Cache_Controller.Ack       |       21238     47.01%     47.01% |        9242     20.46%     67.47% |        6369     14.10%     81.57% |        8328     18.43%    100.00%
system.ruby.L1Cache_Controller.Ack::total        45177                      
system.ruby.L1Cache_Controller.Ack_all   |        9673     38.71%     38.71% |        4977     19.92%     58.63% |        4761     19.05%     77.69% |        5575     22.31%    100.00%
system.ruby.L1Cache_Controller.Ack_all::total        24986                      
system.ruby.L1Cache_Controller.WB_Ack    |       46758      2.32%      2.32% |     1905610     94.51%     96.83% |       16259      0.81%     97.64% |       47585      2.36%    100.00%
system.ruby.L1Cache_Controller.WB_Ack::total      2016212                      
system.ruby.L1Cache_Controller.NP.Load   |       46171      2.95%      2.95% |     1448875     92.45%     95.40% |       23387      1.49%     96.89% |       48768      3.11%    100.00%
system.ruby.L1Cache_Controller.NP.Load::total      1567201                      
system.ruby.L1Cache_Controller.NP.Ifetch |       80447      5.85%      5.85% |     1195568     86.99%     92.85% |       34966      2.54%     95.39% |       63349      4.61%    100.00%
system.ruby.L1Cache_Controller.NP.Ifetch::total      1374330                      
system.ruby.L1Cache_Controller.NP.Store  |       19964      2.06%      2.06% |      922813     95.23%     97.29% |        8320      0.86%     98.15% |       17899      1.85%    100.00%
system.ruby.L1Cache_Controller.NP.Store::total       968996                      
system.ruby.L1Cache_Controller.NP.Inv    |        8800     30.88%     30.88% |        5915     20.76%     51.64% |        6148     21.58%     73.22% |        7630     26.78%    100.00%
system.ruby.L1Cache_Controller.NP.Inv::total        28493                      
system.ruby.L1Cache_Controller.I.Load    |        1499      8.07%      8.07% |        4004     21.56%     29.64% |        7098     38.22%     67.86% |        5968     32.14%    100.00%
system.ruby.L1Cache_Controller.I.Load::total        18569                      
system.ruby.L1Cache_Controller.I.Ifetch  |          23     44.23%     44.23% |           6     11.54%     55.77% |          13     25.00%     80.77% |          10     19.23%    100.00%
system.ruby.L1Cache_Controller.I.Ifetch::total           52                      
system.ruby.L1Cache_Controller.I.Store   |         799     18.27%     18.27% |        1792     40.98%     59.25% |         991     22.66%     81.91% |         791     18.09%    100.00%
system.ruby.L1Cache_Controller.I.Store::total         4373                      
system.ruby.L1Cache_Controller.I.L1_Replacement |        7584     33.99%     33.99% |        2290     10.26%     44.25% |        5743     25.74%     69.98% |        6698     30.02%    100.00%
system.ruby.L1Cache_Controller.I.L1_Replacement::total        22315                      
system.ruby.L1Cache_Controller.S.Load    |      431965      0.35%      0.35% |   122554783     99.29%     99.64% |      199879      0.16%     99.80% |      247127      0.20%    100.00%
system.ruby.L1Cache_Controller.S.Load::total    123433754                      
system.ruby.L1Cache_Controller.S.Ifetch  |    30850408      0.00%      0.00% |18446744072220841984    100.00%    100.00% |     4467438      0.00%    100.00% |     7744308      0.00%    100.00%
system.ruby.L1Cache_Controller.S.Ifetch::total 18446744072263903232                      
system.ruby.L1Cache_Controller.S.Store   |        8743     42.69%     42.69% |        4120     20.12%     62.80% |        3088     15.08%     77.88% |        4531     22.12%    100.00%
system.ruby.L1Cache_Controller.S.Store::total        20482                      
system.ruby.L1Cache_Controller.S.Inv     |        7737     20.85%     20.85% |        5157     13.90%     34.75% |       12416     33.46%     68.21% |       11797     31.79%    100.00%
system.ruby.L1Cache_Controller.S.Inv::total        37107                      
system.ruby.L1Cache_Controller.S.L1_Replacement |       92240      4.93%      4.93% |     1659220     88.67%     93.60% |       44671      2.39%     95.98% |       75152      4.02%    100.00%
system.ruby.L1Cache_Controller.S.L1_Replacement::total      1871283                      
system.ruby.L1Cache_Controller.E.Load    |     1945034      1.84%      1.84% |   103162433     97.77%     99.62% |      122414      0.12%     99.73% |      282088      0.27%    100.00%
system.ruby.L1Cache_Controller.E.Load::total    105511969                      
system.ruby.L1Cache_Controller.E.Store   |        7402      2.63%      2.63% |      261114     92.94%     95.57% |        2014      0.72%     96.29% |       10426      3.71%    100.00%
system.ruby.L1Cache_Controller.E.Store::total       280956                      
system.ruby.L1Cache_Controller.E.Inv     |          78     22.16%     22.16% |          66     18.75%     40.91% |         154     43.75%     84.66% |          54     15.34%    100.00%
system.ruby.L1Cache_Controller.E.Inv::total          352                      
system.ruby.L1Cache_Controller.E.L1_Replacement |       19099      2.49%      2.49% |      721136     94.19%     96.69% |        6515      0.85%     97.54% |       18831      2.46%    100.00%
system.ruby.L1Cache_Controller.E.L1_Replacement::total       765581                      
system.ruby.L1Cache_Controller.E.Fwd_GETX |         338     24.73%     24.73% |         346     25.31%     50.04% |          97      7.10%     57.13% |         586     42.87%    100.00%
system.ruby.L1Cache_Controller.E.Fwd_GETX::total         1367                      
system.ruby.L1Cache_Controller.E.Fwd_GETS |        2569     26.04%     26.04% |         344      3.49%     29.52% |        4269     43.27%     72.79% |        2685     27.21%    100.00%
system.ruby.L1Cache_Controller.E.Fwd_GETS::total         9867                      
system.ruby.L1Cache_Controller.M.Load    |     3885511      1.13%      1.13% |   339301369     98.40%     99.53% |      645428      0.19%     99.72% |      974747      0.28%    100.00%
system.ruby.L1Cache_Controller.M.Load::total    344807055                      
system.ruby.L1Cache_Controller.M.Store   |     2631160      1.50%      1.50% |   171165812     97.46%     98.96% |      709398      0.40%     99.36% |     1121977      0.64%    100.00%
system.ruby.L1Cache_Controller.M.Store::total    175628347                      
system.ruby.L1Cache_Controller.M.Inv     |         235     30.84%     30.84% |         127     16.67%     47.51% |         278     36.48%     83.99% |         122     16.01%    100.00%
system.ruby.L1Cache_Controller.M.Inv::total          762                      
system.ruby.L1Cache_Controller.M.L1_Replacement |       27659      2.21%      2.21% |     1184474     94.71%     96.92% |        9744      0.78%     97.70% |       28754      2.30%    100.00%
system.ruby.L1Cache_Controller.M.L1_Replacement::total      1250631                      
system.ruby.L1Cache_Controller.M.Fwd_GETX |        1717     26.79%     26.79% |        2186     34.11%     60.90% |        1284     20.03%     80.93% |        1222     19.07%    100.00%
system.ruby.L1Cache_Controller.M.Fwd_GETX::total         6409                      
system.ruby.L1Cache_Controller.M.Fwd_GETS |        7668     44.94%     44.94% |        2903     17.01%     61.96% |        3242     19.00%     80.96% |        3249     19.04%    100.00%
system.ruby.L1Cache_Controller.M.Fwd_GETS::total        17062                      
system.ruby.L1Cache_Controller.IS.Data_Exclusive |       29665      2.80%      2.80% |      983366     92.93%     95.73% |       12653      1.20%     96.92% |       32549      3.08%    100.00%
system.ruby.L1Cache_Controller.IS.Data_Exclusive::total      1058233                      
system.ruby.L1Cache_Controller.IS.DataS_fromL1 |        5890     21.87%     21.87% |        7552     28.04%     49.92% |        5808     21.57%     71.48% |        7679     28.52%    100.00%
system.ruby.L1Cache_Controller.IS.DataS_fromL1::total        26929                      
system.ruby.L1Cache_Controller.IS.Data_all_Acks |       92585      4.94%      4.94% |     1657535     88.40%     93.34% |       47003      2.51%     95.85% |       77867      4.15%    100.00%
system.ruby.L1Cache_Controller.IS.Data_all_Acks::total      1874990                      
system.ruby.L1Cache_Controller.IM.Data   |         931     20.67%     20.67% |         857     19.02%     39.69% |        1673     37.14%     76.83% |        1044     23.17%    100.00%
system.ruby.L1Cache_Controller.IM.Data::total         4505                      
system.ruby.L1Cache_Controller.IM.Data_all_Acks |       19833      2.05%      2.05% |      923748     95.34%     97.39% |        7638      0.79%     98.18% |       17646      1.82%    100.00%
system.ruby.L1Cache_Controller.IM.Data_all_Acks::total       968865                      
system.ruby.L1Cache_Controller.SM.Inv    |           1    100.00%    100.00% |           0      0.00%    100.00% |           0      0.00%    100.00% |           0      0.00%    100.00%
system.ruby.L1Cache_Controller.SM.Inv::total            1                      
system.ruby.L1Cache_Controller.SM.Ack    |       21238     47.01%     47.01% |        9242     20.46%     67.47% |        6369     14.10%     81.57% |        8328     18.43%    100.00%
system.ruby.L1Cache_Controller.SM.Ack::total        45177                      
system.ruby.L1Cache_Controller.SM.Ack_all |        9673     38.71%     38.71% |        4977     19.92%     58.63% |        4761     19.05%     77.69% |        5575     22.31%    100.00%
system.ruby.L1Cache_Controller.SM.Ack_all::total        24986                      
system.ruby.L1Cache_Controller.M_I.Ifetch |           1    100.00%    100.00% |           0      0.00%    100.00% |           0      0.00%    100.00% |           0      0.00%    100.00%
system.ruby.L1Cache_Controller.M_I.Ifetch::total            1                      
system.ruby.L1Cache_Controller.M_I.WB_Ack |       46758      2.32%      2.32% |     1905610     94.51%     96.83% |       16259      0.81%     97.64% |       47585      2.36%    100.00%
system.ruby.L1Cache_Controller.M_I.WB_Ack::total      2016212                      
system.ruby.L2Cache_Controller.L1_GET_INSTR      1374382      0.00%      0.00%
system.ruby.L2Cache_Controller.L1_GETS        1586448      0.00%      0.00%
system.ruby.L2Cache_Controller.L1_GETX         973373      0.00%      0.00%
system.ruby.L2Cache_Controller.L1_UPGRADE        20482      0.00%      0.00%
system.ruby.L2Cache_Controller.L1_PUTX        2016212      0.00%      0.00%
system.ruby.L2Cache_Controller.L2_Replacement        21038      0.00%      0.00%
system.ruby.L2Cache_Controller.L2_Replacement_clean        14907      0.00%      0.00%
system.ruby.L2Cache_Controller.Mem_Data         54124      0.00%      0.00%
system.ruby.L2Cache_Controller.Mem_Ack          36844      0.00%      0.00%
system.ruby.L2Cache_Controller.WB_Data          17824      0.00%      0.00%
system.ruby.L2Cache_Controller.WB_Data_clean         9867      0.00%      0.00%
system.ruby.L2Cache_Controller.Ack               8781      0.00%      0.00%
system.ruby.L2Cache_Controller.Ack_all           7490      0.00%      0.00%
system.ruby.L2Cache_Controller.Unblock          26929      0.00%      0.00%
system.ruby.L2Cache_Controller.Exclusive_Unblock      2052084      0.00%      0.00%
system.ruby.L2Cache_Controller.MEM_Inv           1798      0.00%      0.00%
system.ruby.L2Cache_Controller.NP.L1_GET_INSTR         8146      0.00%      0.00%
system.ruby.L2Cache_Controller.NP.L1_GETS        21730      0.00%      0.00%
system.ruby.L2Cache_Controller.NP.L1_GETX        24248      0.00%      0.00%
system.ruby.L2Cache_Controller.SS.L1_GET_INSTR      1366223      0.00%      0.00%
system.ruby.L2Cache_Controller.SS.L1_GETS       500588      0.00%      0.00%
system.ruby.L2Cache_Controller.SS.L1_GETX         4505      0.00%      0.00%
system.ruby.L2Cache_Controller.SS.L1_UPGRADE        20481      0.00%      0.00%
system.ruby.L2Cache_Controller.SS.L2_Replacement          379      0.00%      0.00%
system.ruby.L2Cache_Controller.SS.L2_Replacement_clean         6625      0.00%      0.00%
system.ruby.L2Cache_Controller.SS.MEM_Inv          134      0.00%      0.00%
system.ruby.L2Cache_Controller.M.L1_GET_INSTR           12      0.00%      0.00%
system.ruby.L2Cache_Controller.M.L1_GETS      1036513      0.00%      0.00%
system.ruby.L2Cache_Controller.M.L1_GETX       936841      0.00%      0.00%
system.ruby.L2Cache_Controller.M.L2_Replacement        20214      0.00%      0.00%
system.ruby.L2Cache_Controller.M.L2_Replacement_clean         7624      0.00%      0.00%
system.ruby.L2Cache_Controller.M.MEM_Inv          754      0.00%      0.00%
system.ruby.L2Cache_Controller.MT.L1_GETS        26929      0.00%      0.00%
system.ruby.L2Cache_Controller.MT.L1_GETX         7776      0.00%      0.00%
system.ruby.L2Cache_Controller.MT.L1_PUTX      2016212      0.00%      0.00%
system.ruby.L2Cache_Controller.MT.L2_Replacement          445      0.00%      0.00%
system.ruby.L2Cache_Controller.MT.L2_Replacement_clean          658      0.00%      0.00%
system.ruby.L2Cache_Controller.MT.MEM_Inv           11      0.00%      0.00%
system.ruby.L2Cache_Controller.M_I.L1_GETS            1      0.00%      0.00%
system.ruby.L2Cache_Controller.M_I.Mem_Ack        36844      0.00%      0.00%
system.ruby.L2Cache_Controller.M_I.MEM_Inv          754      0.00%      0.00%
system.ruby.L2Cache_Controller.MT_I.WB_Data          331      0.00%      0.00%
system.ruby.L2Cache_Controller.MT_I.Ack_all          125      0.00%      0.00%
system.ruby.L2Cache_Controller.MT_I.MEM_Inv           11      0.00%      0.00%
system.ruby.L2Cache_Controller.MCT_I.WB_Data          431      0.00%      0.00%
system.ruby.L2Cache_Controller.MCT_I.Ack_all          227      0.00%      0.00%
system.ruby.L2Cache_Controller.I_I.Ack           8147      0.00%      0.00%
system.ruby.L2Cache_Controller.I_I.Ack_all         6625      0.00%      0.00%
system.ruby.L2Cache_Controller.S_I.Ack            634      0.00%      0.00%
system.ruby.L2Cache_Controller.S_I.Ack_all          513      0.00%      0.00%
system.ruby.L2Cache_Controller.S_I.MEM_Inv          134      0.00%      0.00%
system.ruby.L2Cache_Controller.ISS.L1_GETS           10      0.00%      0.00%
system.ruby.L2Cache_Controller.ISS.Mem_Data        21720      0.00%      0.00%
system.ruby.L2Cache_Controller.IS.L1_GET_INSTR            1      0.00%      0.00%
system.ruby.L2Cache_Controller.IS.Mem_Data         8156      0.00%      0.00%
system.ruby.L2Cache_Controller.IM.Mem_Data        24248      0.00%      0.00%
system.ruby.L2Cache_Controller.SS_MB.L1_GETS           73      0.00%      0.00%
system.ruby.L2Cache_Controller.SS_MB.L1_UPGRADE            1      0.00%      0.00%
system.ruby.L2Cache_Controller.SS_MB.Exclusive_Unblock        24986      0.00%      0.00%
system.ruby.L2Cache_Controller.MT_MB.L1_GETS          601      0.00%      0.00%
system.ruby.L2Cache_Controller.MT_MB.L1_GETX            2      0.00%      0.00%
system.ruby.L2Cache_Controller.MT_MB.Exclusive_Unblock      2027098      0.00%      0.00%
system.ruby.L2Cache_Controller.MT_IIB.L1_GETS            3      0.00%      0.00%
system.ruby.L2Cache_Controller.MT_IIB.L1_GETX            1      0.00%      0.00%
system.ruby.L2Cache_Controller.MT_IIB.WB_Data        17054      0.00%      0.00%
system.ruby.L2Cache_Controller.MT_IIB.WB_Data_clean         9863      0.00%      0.00%
system.ruby.L2Cache_Controller.MT_IIB.Unblock           12      0.00%      0.00%
system.ruby.L2Cache_Controller.MT_IB.WB_Data            8      0.00%      0.00%
system.ruby.L2Cache_Controller.MT_IB.WB_Data_clean            4      0.00%      0.00%
system.ruby.L2Cache_Controller.MT_SB.Unblock        26917      0.00%      0.00%

---------- End Simulation Statistics   ----------
