
---------- Begin Simulation Statistics ----------
sim_seconds                                  3.322875                       # Number of seconds simulated
sim_ticks                                3322875310500                       # Number of ticks simulated
final_tick                               55514579517001                       # Number of ticks from beginning of simulation (restored from checkpoints and never reset)
sim_freq                                 1000000000000                       # Frequency of simulated ticks
host_inst_rate                                 160482                       # Simulator instruction rate (inst/s)
host_op_rate                                   225364                       # Simulator op (including micro ops) rate (op/s)
host_tick_rate                              294217316                       # Simulator tick rate (ticks/s)
host_mem_usage                                2017096                       # Number of bytes of host memory used
host_seconds                                 11293.95                       # Real time elapsed on the host
sim_insts                                  1812479532                       # Number of instructions simulated
sim_ops                                    2545249376                       # Number of ops (including micro ops) simulated
system.voltage_domain.voltage                       1                       # Voltage in Volts
system.clk_domain.clock                          1000                       # Clock period in ticks
system.mem_ctrls.bytes_read::ruby.dir_cntrl0    100016512                       # Number of bytes read from this memory
system.mem_ctrls.bytes_read::total          100016512                       # Number of bytes read from this memory
system.mem_ctrls.bytes_written::ruby.dir_cntrl0     49759168                       # Number of bytes written to this memory
system.mem_ctrls.bytes_written::total        49759168                       # Number of bytes written to this memory
system.mem_ctrls.num_reads::ruby.dir_cntrl0      1562758                       # Number of read requests responded to by this memory
system.mem_ctrls.num_reads::total             1562758                       # Number of read requests responded to by this memory
system.mem_ctrls.num_writes::ruby.dir_cntrl0       777487                       # Number of write requests responded to by this memory
system.mem_ctrls.num_writes::total             777487                       # Number of write requests responded to by this memory
system.mem_ctrls.bw_read::ruby.dir_cntrl0     30099388                       # Total read bandwidth from this memory (bytes/s)
system.mem_ctrls.bw_read::total              30099388                       # Total read bandwidth from this memory (bytes/s)
system.mem_ctrls.bw_write::ruby.dir_cntrl0     14974732                       # Write bandwidth from this memory (bytes/s)
system.mem_ctrls.bw_write::total             14974732                       # Write bandwidth from this memory (bytes/s)
system.mem_ctrls.bw_total::ruby.dir_cntrl0     45074120                       # Total bandwidth to/from this memory (bytes/s)
system.mem_ctrls.bw_total::total             45074120                       # Total bandwidth to/from this memory (bytes/s)
system.mem_ctrls.readReqs                     1562758                       # Number of read requests accepted
system.mem_ctrls.writeReqs                     777487                       # Number of write requests accepted
system.mem_ctrls.readBursts                   1562758                       # Number of DRAM read bursts, including those serviced by the write queue
system.mem_ctrls.writeBursts                   777487                       # Number of DRAM write bursts, including those merged in the write queue
system.mem_ctrls.bytesReadDRAM               99862720                       # Total number of bytes read from DRAM
system.mem_ctrls.bytesReadWrQ                  153792                       # Total number of bytes read from write queue
system.mem_ctrls.bytesWritten                49757888                       # Total number of bytes written to DRAM
system.mem_ctrls.bytesReadSys               100016512                       # Total read bytes from the system interface side
system.mem_ctrls.bytesWrittenSys             49759168                       # Total written bytes from the system interface side
system.mem_ctrls.servicedByWrQ                   2403                       # Number of DRAM read bursts serviced by the write queue
system.mem_ctrls.mergedWrBursts                    20                       # Number of DRAM write bursts merged with an existing one
system.mem_ctrls.neitherReadNorWriteReqs            0                       # Number of requests that are neither read nor write
system.mem_ctrls.perBankRdBursts::0            104792                       # Per bank write bursts
system.mem_ctrls.perBankRdBursts::1            111013                       # Per bank write bursts
system.mem_ctrls.perBankRdBursts::2             92738                       # Per bank write bursts
system.mem_ctrls.perBankRdBursts::3             94823                       # Per bank write bursts
system.mem_ctrls.perBankRdBursts::4             94088                       # Per bank write bursts
system.mem_ctrls.perBankRdBursts::5             90092                       # Per bank write bursts
system.mem_ctrls.perBankRdBursts::6            100036                       # Per bank write bursts
system.mem_ctrls.perBankRdBursts::7             92953                       # Per bank write bursts
system.mem_ctrls.perBankRdBursts::8             97810                       # Per bank write bursts
system.mem_ctrls.perBankRdBursts::9             95011                       # Per bank write bursts
system.mem_ctrls.perBankRdBursts::10            93238                       # Per bank write bursts
system.mem_ctrls.perBankRdBursts::11            94272                       # Per bank write bursts
system.mem_ctrls.perBankRdBursts::12            92417                       # Per bank write bursts
system.mem_ctrls.perBankRdBursts::13            96506                       # Per bank write bursts
system.mem_ctrls.perBankRdBursts::14           106091                       # Per bank write bursts
system.mem_ctrls.perBankRdBursts::15           104475                       # Per bank write bursts
system.mem_ctrls.perBankWrBursts::0             50922                       # Per bank write bursts
system.mem_ctrls.perBankWrBursts::1             56458                       # Per bank write bursts
system.mem_ctrls.perBankWrBursts::2             46351                       # Per bank write bursts
system.mem_ctrls.perBankWrBursts::3             46299                       # Per bank write bursts
system.mem_ctrls.perBankWrBursts::4             46530                       # Per bank write bursts
system.mem_ctrls.perBankWrBursts::5             46206                       # Per bank write bursts
system.mem_ctrls.perBankWrBursts::6             50364                       # Per bank write bursts
system.mem_ctrls.perBankWrBursts::7             46763                       # Per bank write bursts
system.mem_ctrls.perBankWrBursts::8             48756                       # Per bank write bursts
system.mem_ctrls.perBankWrBursts::9             47195                       # Per bank write bursts
system.mem_ctrls.perBankWrBursts::10            46509                       # Per bank write bursts
system.mem_ctrls.perBankWrBursts::11            45686                       # Per bank write bursts
system.mem_ctrls.perBankWrBursts::12            46879                       # Per bank write bursts
system.mem_ctrls.perBankWrBursts::13            48631                       # Per bank write bursts
system.mem_ctrls.perBankWrBursts::14            52177                       # Per bank write bursts
system.mem_ctrls.perBankWrBursts::15            51741                       # Per bank write bursts
system.mem_ctrls.numRdRetry                         0                       # Number of times read queue was full causing retry
system.mem_ctrls.numWrRetry                         0                       # Number of times write queue was full causing retry
system.mem_ctrls.totGap                  3322873921000                       # Total gap between requests
system.mem_ctrls.readPktSize::0                     0                       # Read request sizes (log2)
system.mem_ctrls.readPktSize::1                     0                       # Read request sizes (log2)
system.mem_ctrls.readPktSize::2                     0                       # Read request sizes (log2)
system.mem_ctrls.readPktSize::3                     0                       # Read request sizes (log2)
system.mem_ctrls.readPktSize::4                     0                       # Read request sizes (log2)
system.mem_ctrls.readPktSize::5                     0                       # Read request sizes (log2)
system.mem_ctrls.readPktSize::6               1562758                       # Read request sizes (log2)
system.mem_ctrls.writePktSize::0                    0                       # Write request sizes (log2)
system.mem_ctrls.writePktSize::1                    0                       # Write request sizes (log2)
system.mem_ctrls.writePktSize::2                    0                       # Write request sizes (log2)
system.mem_ctrls.writePktSize::3                    0                       # Write request sizes (log2)
system.mem_ctrls.writePktSize::4                    0                       # Write request sizes (log2)
system.mem_ctrls.writePktSize::5                    0                       # Write request sizes (log2)
system.mem_ctrls.writePktSize::6               777487                       # Write request sizes (log2)
system.mem_ctrls.rdQLenPdf::0                 1550283                       # What read queue length does an incoming req see
system.mem_ctrls.rdQLenPdf::1                    9725                       # What read queue length does an incoming req see
system.mem_ctrls.rdQLenPdf::2                     347                       # What read queue length does an incoming req see
system.mem_ctrls.rdQLenPdf::3                       0                       # What read queue length does an incoming req see
system.mem_ctrls.rdQLenPdf::4                       0                       # What read queue length does an incoming req see
system.mem_ctrls.rdQLenPdf::5                       0                       # What read queue length does an incoming req see
system.mem_ctrls.rdQLenPdf::6                       0                       # What read queue length does an incoming req see
system.mem_ctrls.rdQLenPdf::7                       0                       # What read queue length does an incoming req see
system.mem_ctrls.rdQLenPdf::8                       0                       # What read queue length does an incoming req see
system.mem_ctrls.rdQLenPdf::9                       0                       # What read queue length does an incoming req see
system.mem_ctrls.rdQLenPdf::10                      0                       # What read queue length does an incoming req see
system.mem_ctrls.rdQLenPdf::11                      0                       # What read queue length does an incoming req see
system.mem_ctrls.rdQLenPdf::12                      0                       # What read queue length does an incoming req see
system.mem_ctrls.rdQLenPdf::13                      0                       # What read queue length does an incoming req see
system.mem_ctrls.rdQLenPdf::14                      0                       # What read queue length does an incoming req see
system.mem_ctrls.rdQLenPdf::15                      0                       # What read queue length does an incoming req see
system.mem_ctrls.rdQLenPdf::16                      0                       # What read queue length does an incoming req see
system.mem_ctrls.rdQLenPdf::17                      0                       # What read queue length does an incoming req see
system.mem_ctrls.rdQLenPdf::18                      0                       # What read queue length does an incoming req see
system.mem_ctrls.rdQLenPdf::19                      0                       # What read queue length does an incoming req see
system.mem_ctrls.rdQLenPdf::20                      0                       # What read queue length does an incoming req see
system.mem_ctrls.rdQLenPdf::21                      0                       # What read queue length does an incoming req see
system.mem_ctrls.rdQLenPdf::22                      0                       # What read queue length does an incoming req see
system.mem_ctrls.rdQLenPdf::23                      0                       # What read queue length does an incoming req see
system.mem_ctrls.rdQLenPdf::24                      0                       # What read queue length does an incoming req see
system.mem_ctrls.rdQLenPdf::25                      0                       # What read queue length does an incoming req see
system.mem_ctrls.rdQLenPdf::26                      0                       # What read queue length does an incoming req see
system.mem_ctrls.rdQLenPdf::27                      0                       # What read queue length does an incoming req see
system.mem_ctrls.rdQLenPdf::28                      0                       # What read queue length does an incoming req see
system.mem_ctrls.rdQLenPdf::29                      0                       # What read queue length does an incoming req see
system.mem_ctrls.rdQLenPdf::30                      0                       # What read queue length does an incoming req see
system.mem_ctrls.rdQLenPdf::31                      0                       # What read queue length does an incoming req see
system.mem_ctrls.wrQLenPdf::0                       0                       # What write queue length does an incoming req see
system.mem_ctrls.wrQLenPdf::1                       0                       # What write queue length does an incoming req see
system.mem_ctrls.wrQLenPdf::2                       0                       # What write queue length does an incoming req see
system.mem_ctrls.wrQLenPdf::3                       0                       # What write queue length does an incoming req see
system.mem_ctrls.wrQLenPdf::4                       0                       # What write queue length does an incoming req see
system.mem_ctrls.wrQLenPdf::5                       0                       # What write queue length does an incoming req see
system.mem_ctrls.wrQLenPdf::6                       0                       # What write queue length does an incoming req see
system.mem_ctrls.wrQLenPdf::7                       0                       # What write queue length does an incoming req see
system.mem_ctrls.wrQLenPdf::8                       0                       # What write queue length does an incoming req see
system.mem_ctrls.wrQLenPdf::9                       0                       # What write queue length does an incoming req see
system.mem_ctrls.wrQLenPdf::10                      0                       # What write queue length does an incoming req see
system.mem_ctrls.wrQLenPdf::11                      0                       # What write queue length does an incoming req see
system.mem_ctrls.wrQLenPdf::12                      0                       # What write queue length does an incoming req see
system.mem_ctrls.wrQLenPdf::13                      0                       # What write queue length does an incoming req see
system.mem_ctrls.wrQLenPdf::14                      0                       # What write queue length does an incoming req see
system.mem_ctrls.wrQLenPdf::15                   1176                       # What write queue length does an incoming req see
system.mem_ctrls.wrQLenPdf::16                   1288                       # What write queue length does an incoming req see
system.mem_ctrls.wrQLenPdf::17                  47441                       # What write queue length does an incoming req see
system.mem_ctrls.wrQLenPdf::18                  48370                       # What write queue length does an incoming req see
system.mem_ctrls.wrQLenPdf::19                  48448                       # What write queue length does an incoming req see
system.mem_ctrls.wrQLenPdf::20                  48519                       # What write queue length does an incoming req see
system.mem_ctrls.wrQLenPdf::21                  48521                       # What write queue length does an incoming req see
system.mem_ctrls.wrQLenPdf::22                  48533                       # What write queue length does an incoming req see
system.mem_ctrls.wrQLenPdf::23                  48568                       # What write queue length does an incoming req see
system.mem_ctrls.wrQLenPdf::24                  48524                       # What write queue length does an incoming req see
system.mem_ctrls.wrQLenPdf::25                  48525                       # What write queue length does an incoming req see
system.mem_ctrls.wrQLenPdf::26                  48535                       # What write queue length does an incoming req see
system.mem_ctrls.wrQLenPdf::27                  48521                       # What write queue length does an incoming req see
system.mem_ctrls.wrQLenPdf::28                  48522                       # What write queue length does an incoming req see
system.mem_ctrls.wrQLenPdf::29                  48502                       # What write queue length does an incoming req see
system.mem_ctrls.wrQLenPdf::30                  48482                       # What write queue length does an incoming req see
system.mem_ctrls.wrQLenPdf::31                  48462                       # What write queue length does an incoming req see
system.mem_ctrls.wrQLenPdf::32                  48448                       # What write queue length does an incoming req see
system.mem_ctrls.wrQLenPdf::33                     22                       # What write queue length does an incoming req see
system.mem_ctrls.wrQLenPdf::34                     13                       # What write queue length does an incoming req see
system.mem_ctrls.wrQLenPdf::35                     12                       # What write queue length does an incoming req see
system.mem_ctrls.wrQLenPdf::36                      9                       # What write queue length does an incoming req see
system.mem_ctrls.wrQLenPdf::37                      5                       # What write queue length does an incoming req see
system.mem_ctrls.wrQLenPdf::38                      3                       # What write queue length does an incoming req see
system.mem_ctrls.wrQLenPdf::39                      4                       # What write queue length does an incoming req see
system.mem_ctrls.wrQLenPdf::40                      2                       # What write queue length does an incoming req see
system.mem_ctrls.wrQLenPdf::41                      4                       # What write queue length does an incoming req see
system.mem_ctrls.wrQLenPdf::42                      2                       # What write queue length does an incoming req see
system.mem_ctrls.wrQLenPdf::43                      1                       # What write queue length does an incoming req see
system.mem_ctrls.wrQLenPdf::44                      3                       # What write queue length does an incoming req see
system.mem_ctrls.wrQLenPdf::45                      2                       # What write queue length does an incoming req see
system.mem_ctrls.wrQLenPdf::46                      0                       # What write queue length does an incoming req see
system.mem_ctrls.wrQLenPdf::47                      0                       # What write queue length does an incoming req see
system.mem_ctrls.wrQLenPdf::48                      0                       # What write queue length does an incoming req see
system.mem_ctrls.wrQLenPdf::49                      0                       # What write queue length does an incoming req see
system.mem_ctrls.wrQLenPdf::50                      0                       # What write queue length does an incoming req see
system.mem_ctrls.wrQLenPdf::51                      0                       # What write queue length does an incoming req see
system.mem_ctrls.wrQLenPdf::52                      0                       # What write queue length does an incoming req see
system.mem_ctrls.wrQLenPdf::53                      0                       # What write queue length does an incoming req see
system.mem_ctrls.wrQLenPdf::54                      0                       # What write queue length does an incoming req see
system.mem_ctrls.wrQLenPdf::55                      0                       # What write queue length does an incoming req see
system.mem_ctrls.wrQLenPdf::56                      0                       # What write queue length does an incoming req see
system.mem_ctrls.wrQLenPdf::57                      0                       # What write queue length does an incoming req see
system.mem_ctrls.wrQLenPdf::58                      0                       # What write queue length does an incoming req see
system.mem_ctrls.wrQLenPdf::59                      0                       # What write queue length does an incoming req see
system.mem_ctrls.wrQLenPdf::60                      0                       # What write queue length does an incoming req see
system.mem_ctrls.wrQLenPdf::61                      0                       # What write queue length does an incoming req see
system.mem_ctrls.wrQLenPdf::62                      0                       # What write queue length does an incoming req see
system.mem_ctrls.wrQLenPdf::63                      0                       # What write queue length does an incoming req see
system.mem_ctrls.bytesPerActivate::samples      1345515                       # Bytes accessed per row activation
system.mem_ctrls.bytesPerActivate::mean    111.199605                       # Bytes accessed per row activation
system.mem_ctrls.bytesPerActivate::gmean    86.480417                       # Bytes accessed per row activation
system.mem_ctrls.bytesPerActivate::stdev   133.591156                       # Bytes accessed per row activation
system.mem_ctrls.bytesPerActivate::0-127       958581     71.24%     71.24% # Bytes accessed per row activation
system.mem_ctrls.bytesPerActivate::128-255       295913     21.99%     93.24% # Bytes accessed per row activation
system.mem_ctrls.bytesPerActivate::256-383        36304      2.70%     95.93% # Bytes accessed per row activation
system.mem_ctrls.bytesPerActivate::384-511        15498      1.15%     97.09% # Bytes accessed per row activation
system.mem_ctrls.bytesPerActivate::512-639        10573      0.79%     97.87% # Bytes accessed per row activation
system.mem_ctrls.bytesPerActivate::640-767         8456      0.63%     98.50% # Bytes accessed per row activation
system.mem_ctrls.bytesPerActivate::768-895         5074      0.38%     98.88% # Bytes accessed per row activation
system.mem_ctrls.bytesPerActivate::896-1023         3406      0.25%     99.13% # Bytes accessed per row activation
system.mem_ctrls.bytesPerActivate::1024-1151        11710      0.87%    100.00% # Bytes accessed per row activation
system.mem_ctrls.bytesPerActivate::total      1345515                       # Bytes accessed per row activation
system.mem_ctrls.rdPerTurnAround::samples        48427                       # Reads before turning the bus around for writes
system.mem_ctrls.rdPerTurnAround::mean      32.224111                       # Reads before turning the bus around for writes
system.mem_ctrls.rdPerTurnAround::stdev     14.964718                       # Reads before turning the bus around for writes
system.mem_ctrls.rdPerTurnAround::0-31          26541     54.81%     54.81% # Reads before turning the bus around for writes
system.mem_ctrls.rdPerTurnAround::32-63         20711     42.77%     97.57% # Reads before turning the bus around for writes
system.mem_ctrls.rdPerTurnAround::64-95          1087      2.24%     99.82% # Reads before turning the bus around for writes
system.mem_ctrls.rdPerTurnAround::96-127           66      0.14%     99.95% # Reads before turning the bus around for writes
system.mem_ctrls.rdPerTurnAround::128-159            4      0.01%     99.96% # Reads before turning the bus around for writes
system.mem_ctrls.rdPerTurnAround::160-191            3      0.01%     99.97% # Reads before turning the bus around for writes
system.mem_ctrls.rdPerTurnAround::192-223            4      0.01%     99.98% # Reads before turning the bus around for writes
system.mem_ctrls.rdPerTurnAround::288-319            1      0.00%     99.98% # Reads before turning the bus around for writes
system.mem_ctrls.rdPerTurnAround::384-415            3      0.01%     99.99% # Reads before turning the bus around for writes
system.mem_ctrls.rdPerTurnAround::416-447            1      0.00%     99.99% # Reads before turning the bus around for writes
system.mem_ctrls.rdPerTurnAround::480-511            1      0.00%     99.99% # Reads before turning the bus around for writes
system.mem_ctrls.rdPerTurnAround::544-575            3      0.01%    100.00% # Reads before turning the bus around for writes
system.mem_ctrls.rdPerTurnAround::576-607            1      0.00%    100.00% # Reads before turning the bus around for writes
system.mem_ctrls.rdPerTurnAround::736-767            1      0.00%    100.00% # Reads before turning the bus around for writes
system.mem_ctrls.rdPerTurnAround::total         48427                       # Reads before turning the bus around for writes
system.mem_ctrls.wrPerTurnAround::samples        48427                       # Writes before turning the bus around for reads
system.mem_ctrls.wrPerTurnAround::mean      16.054412                       # Writes before turning the bus around for reads
system.mem_ctrls.wrPerTurnAround::gmean     16.051131                       # Writes before turning the bus around for reads
system.mem_ctrls.wrPerTurnAround::stdev      0.341079                       # Writes before turning the bus around for reads
system.mem_ctrls.wrPerTurnAround::16            47108     97.28%     97.28% # Writes before turning the bus around for reads
system.mem_ctrls.wrPerTurnAround::17               91      0.19%     97.46% # Writes before turning the bus around for reads
system.mem_ctrls.wrPerTurnAround::18             1198      2.47%     99.94% # Writes before turning the bus around for reads
system.mem_ctrls.wrPerTurnAround::19               12      0.02%     99.96% # Writes before turning the bus around for reads
system.mem_ctrls.wrPerTurnAround::20                5      0.01%     99.97% # Writes before turning the bus around for reads
system.mem_ctrls.wrPerTurnAround::21                3      0.01%     99.98% # Writes before turning the bus around for reads
system.mem_ctrls.wrPerTurnAround::22                5      0.01%     99.99% # Writes before turning the bus around for reads
system.mem_ctrls.wrPerTurnAround::23                1      0.00%     99.99% # Writes before turning the bus around for reads
system.mem_ctrls.wrPerTurnAround::25                1      0.00%     99.99% # Writes before turning the bus around for reads
system.mem_ctrls.wrPerTurnAround::26                2      0.00%    100.00% # Writes before turning the bus around for reads
system.mem_ctrls.wrPerTurnAround::27                1      0.00%    100.00% # Writes before turning the bus around for reads
system.mem_ctrls.wrPerTurnAround::total         48427                       # Writes before turning the bus around for reads
system.mem_ctrls.totQLat                  27130168009                       # Total ticks spent queuing
system.mem_ctrls.totMemAccLat             56386824259                       # Total ticks spent from burst creation until serviced by the DRAM
system.mem_ctrls.totBusLat                 7801775000                       # Total ticks spent in databus transfers
system.mem_ctrls.avgQLat                     17387.18                       # Average queueing delay per DRAM burst
system.mem_ctrls.avgBusLat                    5000.00                       # Average bus latency per DRAM burst
system.mem_ctrls.avgMemAccLat                36137.18                       # Average memory access latency per DRAM burst
system.mem_ctrls.avgRdBW                        30.05                       # Average DRAM read bandwidth in MiByte/s
system.mem_ctrls.avgWrBW                        14.97                       # Average achieved write bandwidth in MiByte/s
system.mem_ctrls.avgRdBWSys                     30.10                       # Average system read bandwidth in MiByte/s
system.mem_ctrls.avgWrBWSys                     14.97                       # Average system write bandwidth in MiByte/s
system.mem_ctrls.peakBW                      12800.00                       # Theoretical peak bandwidth in MiByte/s
system.mem_ctrls.busUtil                         0.35                       # Data bus utilization in percentage
system.mem_ctrls.busUtilRead                     0.23                       # Data bus utilization in percentage for reads
system.mem_ctrls.busUtilWrite                    0.12                       # Data bus utilization in percentage for writes
system.mem_ctrls.avgRdQLen                       1.00                       # Average read queue length when enqueuing
system.mem_ctrls.avgWrQLen                      25.47                       # Average write queue length when enqueuing
system.mem_ctrls.readRowHits                   775041                       # Number of row buffer hits during reads
system.mem_ctrls.writeRowHits                  217266                       # Number of row buffer hits during writes
system.mem_ctrls.readRowHitRate                 49.67                       # Row buffer hit rate for reads
system.mem_ctrls.writeRowHitRate                27.95                       # Row buffer hit rate for writes
system.mem_ctrls.avgGap                    1419882.93                       # Average gap between requests
system.mem_ctrls.pageHitRate                    42.45                       # Row buffer hit rate, read and write combined
system.mem_ctrls_0.actEnergy               5082678720                       # Energy for activate commands per rank (pJ)
system.mem_ctrls_0.preEnergy               2773287000                       # Energy for precharge commands per rank (pJ)
system.mem_ctrls_0.readEnergy              6150432600                       # Energy for read commands per rank (pJ)
system.mem_ctrls_0.writeEnergy             2526558480                       # Energy for write commands per rank (pJ)
system.mem_ctrls_0.refreshEnergy         217285819920                       # Energy for refresh commands per rank (pJ)
system.mem_ctrls_0.actBackEnergy         434656932255                       # Energy for active background per rank (pJ)
system.mem_ctrls_0.preBackEnergy         1614760035000                       # Energy for precharge background per rank (pJ)
system.mem_ctrls_0.totalEnergy           2283235743975                       # Total energy per rank (pJ)
system.mem_ctrls_0.averagePower            686.330328                       # Core power per rank (mW)
system.mem_ctrls_0.memoryStateTime::IDLE 2682202979501                       # Time in different power states
system.mem_ctrls_0.memoryStateTime::REF  110958120000                       # Time in different power states
system.mem_ctrls_0.memoryStateTime::PRE_PDN            0                       # Time in different power states
system.mem_ctrls_0.memoryStateTime::ACT  529714399999                       # Time in different power states
system.mem_ctrls_0.memoryStateTime::ACT_PDN            0                       # Time in different power states
system.mem_ctrls_1.actEnergy               5119934400                       # Energy for activate commands per rank (pJ)
system.mem_ctrls_1.preEnergy               2793615000                       # Energy for precharge commands per rank (pJ)
system.mem_ctrls_1.readEnergy              6141135000                       # Energy for read commands per rank (pJ)
system.mem_ctrls_1.writeEnergy             2511531360                       # Energy for write commands per rank (pJ)
system.mem_ctrls_1.refreshEnergy         217285819920                       # Energy for refresh commands per rank (pJ)
system.mem_ctrls_1.actBackEnergy         439332551910                       # Energy for active background per rank (pJ)
system.mem_ctrls_1.preBackEnergy         1610658614250                       # Energy for precharge background per rank (pJ)
system.mem_ctrls_1.totalEnergy           2283843201840                       # Total energy per rank (pJ)
system.mem_ctrls_1.averagePower            686.512927                       # Core power per rank (mW)
system.mem_ctrls_1.memoryStateTime::IDLE 2675525083253                       # Time in different power states
system.mem_ctrls_1.memoryStateTime::REF  110958120000                       # Time in different power states
system.mem_ctrls_1.memoryStateTime::PRE_PDN            0                       # Time in different power states
system.mem_ctrls_1.memoryStateTime::ACT  536392419247                       # Time in different power states
system.mem_ctrls_1.memoryStateTime::ACT_PDN            0                       # Time in different power states
system.cpu_voltage_domain.voltage                   1                       # Voltage in Volts
system.cpu_clk_domain.clock                       500                       # Clock period in ticks
system.cpu0.apic_clk_domain.clock                8000                       # Clock period in ticks
system.cpu0.numCycles                      6649103313                       # number of cpu cycles simulated
system.cpu0.numWorkItemsStarted                     0                       # number of work items this cpu started
system.cpu0.numWorkItemsCompleted                   0                       # number of work items this cpu completed
system.cpu0.kern.inst.arm                           0                       # number of arm instructions executed
system.cpu0.kern.inst.quiesce                       0                       # number of quiesce instructions executed
system.cpu0.committedInsts                    5350654                       # Number of instructions committed
system.cpu0.committedOps                     10805092                       # Number of ops (including micro ops) committed
system.cpu0.num_int_alu_accesses             10632070                       # Number of integer alu accesses
system.cpu0.num_fp_alu_accesses                 16079                       # Number of float alu accesses
system.cpu0.num_func_calls                     257918                       # number of times a function call or return occured
system.cpu0.num_conditional_control_insts       793035                       # number of instructions that are conditional controls
system.cpu0.num_int_insts                    10632070                       # number of integer instructions
system.cpu0.num_fp_insts                        16079                       # number of float instructions
system.cpu0.num_int_register_reads           21296244                       # number of times the integer registers were read
system.cpu0.num_int_register_writes           8656672                       # number of times the integer registers were written
system.cpu0.num_fp_register_reads               26099                       # number of times the floating registers were read
system.cpu0.num_fp_register_writes              12713                       # number of times the floating registers were written
system.cpu0.num_cc_register_reads             5905904                       # number of times the CC registers were read
system.cpu0.num_cc_register_writes            3526210                       # number of times the CC registers were written
system.cpu0.num_mem_refs                      2457687                       # number of memory refs
system.cpu0.num_load_insts                    1468600                       # Number of load instructions
system.cpu0.num_store_insts                    989087                       # Number of store instructions
system.cpu0.num_idle_cycles              6620031642.129411                       # Number of idle cycles
system.cpu0.num_busy_cycles              29071670.870589                       # Number of busy cycles
system.cpu0.not_idle_fraction                0.004372                       # Percentage of non-idle cycles
system.cpu0.idle_fraction                    0.995628                       # Percentage of idle cycles
system.cpu0.Branches                          1166645                       # Number of branches fetched
system.cpu0.op_class::No_OpClass               119264      1.10%      1.10% # Class of executed instruction
system.cpu0.op_class::IntAlu                  8164006     75.55%     76.66% # Class of executed instruction
system.cpu0.op_class::IntMult                   14465      0.13%     76.79% # Class of executed instruction
system.cpu0.op_class::IntDiv                    37921      0.35%     77.14% # Class of executed instruction
system.cpu0.op_class::FloatAdd                  12016      0.11%     77.25% # Class of executed instruction
system.cpu0.op_class::FloatCmp                      0      0.00%     77.25% # Class of executed instruction
system.cpu0.op_class::FloatCvt                     48      0.00%     77.26% # Class of executed instruction
system.cpu0.op_class::FloatMult                     0      0.00%     77.26% # Class of executed instruction
system.cpu0.op_class::FloatDiv                      0      0.00%     77.26% # Class of executed instruction
system.cpu0.op_class::FloatSqrt                     0      0.00%     77.26% # Class of executed instruction
system.cpu0.op_class::SimdAdd                       0      0.00%     77.26% # Class of executed instruction
system.cpu0.op_class::SimdAddAcc                    0      0.00%     77.26% # Class of executed instruction
system.cpu0.op_class::SimdAlu                       0      0.00%     77.26% # Class of executed instruction
system.cpu0.op_class::SimdCmp                       0      0.00%     77.26% # Class of executed instruction
system.cpu0.op_class::SimdCvt                       0      0.00%     77.26% # Class of executed instruction
system.cpu0.op_class::SimdMisc                      0      0.00%     77.26% # Class of executed instruction
system.cpu0.op_class::SimdMult                      0      0.00%     77.26% # Class of executed instruction
system.cpu0.op_class::SimdMultAcc                   0      0.00%     77.26% # Class of executed instruction
system.cpu0.op_class::SimdShift                     0      0.00%     77.26% # Class of executed instruction
system.cpu0.op_class::SimdShiftAcc                  0      0.00%     77.26% # Class of executed instruction
system.cpu0.op_class::SimdSqrt                      0      0.00%     77.26% # Class of executed instruction
system.cpu0.op_class::SimdFloatAdd                  0      0.00%     77.26% # Class of executed instruction
system.cpu0.op_class::SimdFloatAlu                  0      0.00%     77.26% # Class of executed instruction
system.cpu0.op_class::SimdFloatCmp                  0      0.00%     77.26% # Class of executed instruction
system.cpu0.op_class::SimdFloatCvt                  0      0.00%     77.26% # Class of executed instruction
system.cpu0.op_class::SimdFloatDiv                  0      0.00%     77.26% # Class of executed instruction
system.cpu0.op_class::SimdFloatMisc                 0      0.00%     77.26% # Class of executed instruction
system.cpu0.op_class::SimdFloatMult                 0      0.00%     77.26% # Class of executed instruction
system.cpu0.op_class::SimdFloatMultAcc              0      0.00%     77.26% # Class of executed instruction
system.cpu0.op_class::SimdFloatSqrt                 0      0.00%     77.26% # Class of executed instruction
system.cpu0.op_class::MemRead                 1468600     13.59%     90.85% # Class of executed instruction
system.cpu0.op_class::MemWrite                 989087      9.15%    100.00% # Class of executed instruction
system.cpu0.op_class::IprAccess                     0      0.00%    100.00% # Class of executed instruction
system.cpu0.op_class::InstPrefetch                  0      0.00%    100.00% # Class of executed instruction
system.cpu0.op_class::total                  10805407                       # Class of executed instruction
system.cpu1.apic_clk_domain.clock                8000                       # Clock period in ticks
system.cpu1.numCycles                      6644974231                       # number of cpu cycles simulated
system.cpu1.numWorkItemsStarted                     0                       # number of work items this cpu started
system.cpu1.numWorkItemsCompleted                   0                       # number of work items this cpu completed
system.cpu1.kern.inst.arm                           0                       # number of arm instructions executed
system.cpu1.kern.inst.quiesce                       0                       # number of quiesce instructions executed
system.cpu1.committedInsts                 1799303272                       # Number of instructions committed
system.cpu1.committedOps                   2518475368                       # Number of ops (including micro ops) committed
system.cpu1.num_int_alu_accesses           1103796579                       # Number of integer alu accesses
system.cpu1.num_fp_alu_accesses            1704045758                       # Number of float alu accesses
system.cpu1.num_func_calls                    4006768                       # number of times a function call or return occured
system.cpu1.num_conditional_control_insts    101387128                       # number of instructions that are conditional controls
system.cpu1.num_int_insts                  1103796579                       # number of integer instructions
system.cpu1.num_fp_insts                   1704045758                       # number of float instructions
system.cpu1.num_int_register_reads         2220225772                       # number of times the integer registers were read
system.cpu1.num_int_register_writes         671273623                       # number of times the integer registers were written
system.cpu1.num_fp_register_reads          3683548681                       # number of times the floating registers were read
system.cpu1.num_fp_register_writes         1663692349                       # number of times the floating registers were written
system.cpu1.num_cc_register_reads           596181772                       # number of times the CC registers were read
system.cpu1.num_cc_register_writes          348093003                       # number of times the CC registers were written
system.cpu1.num_mem_refs                    329868487                       # number of memory refs
system.cpu1.num_load_insts                  284998941                       # Number of load instructions
system.cpu1.num_store_insts                  44869546                       # Number of store instructions
system.cpu1.num_idle_cycles              19312515.555221                       # Number of idle cycles
system.cpu1.num_busy_cycles              6625661715.444779                       # Number of busy cycles
system.cpu1.not_idle_fraction                0.997094                       # Percentage of non-idle cycles
system.cpu1.idle_fraction                    0.002906                       # Percentage of idle cycles
system.cpu1.Branches                        132060030                       # Number of branches fetched
system.cpu1.op_class::No_OpClass              1848810      0.07%      0.07% # Class of executed instruction
system.cpu1.op_class::IntAlu               1350248966     53.61%     53.69% # Class of executed instruction
system.cpu1.op_class::IntMult                   78422      0.00%     53.69% # Class of executed instruction
system.cpu1.op_class::IntDiv                    78757      0.00%     53.69% # Class of executed instruction
system.cpu1.op_class::FloatAdd              836360618     33.21%     86.90% # Class of executed instruction
system.cpu1.op_class::FloatCmp                      0      0.00%     86.90% # Class of executed instruction
system.cpu1.op_class::FloatCvt                     16      0.00%     86.90% # Class of executed instruction
system.cpu1.op_class::FloatMult                     0      0.00%     86.90% # Class of executed instruction
system.cpu1.op_class::FloatDiv                      0      0.00%     86.90% # Class of executed instruction
system.cpu1.op_class::FloatSqrt                     0      0.00%     86.90% # Class of executed instruction
system.cpu1.op_class::SimdAdd                       0      0.00%     86.90% # Class of executed instruction
system.cpu1.op_class::SimdAddAcc                    0      0.00%     86.90% # Class of executed instruction
system.cpu1.op_class::SimdAlu                       0      0.00%     86.90% # Class of executed instruction
system.cpu1.op_class::SimdCmp                       0      0.00%     86.90% # Class of executed instruction
system.cpu1.op_class::SimdCvt                       0      0.00%     86.90% # Class of executed instruction
system.cpu1.op_class::SimdMisc                      0      0.00%     86.90% # Class of executed instruction
system.cpu1.op_class::SimdMult                      0      0.00%     86.90% # Class of executed instruction
system.cpu1.op_class::SimdMultAcc                   0      0.00%     86.90% # Class of executed instruction
system.cpu1.op_class::SimdShift                     0      0.00%     86.90% # Class of executed instruction
system.cpu1.op_class::SimdShiftAcc                  0      0.00%     86.90% # Class of executed instruction
system.cpu1.op_class::SimdSqrt                      0      0.00%     86.90% # Class of executed instruction
system.cpu1.op_class::SimdFloatAdd                  0      0.00%     86.90% # Class of executed instruction
system.cpu1.op_class::SimdFloatAlu                  0      0.00%     86.90% # Class of executed instruction
system.cpu1.op_class::SimdFloatCmp                  0      0.00%     86.90% # Class of executed instruction
system.cpu1.op_class::SimdFloatCvt                  0      0.00%     86.90% # Class of executed instruction
system.cpu1.op_class::SimdFloatDiv                  0      0.00%     86.90% # Class of executed instruction
system.cpu1.op_class::SimdFloatMisc                 0      0.00%     86.90% # Class of executed instruction
system.cpu1.op_class::SimdFloatMult                 0      0.00%     86.90% # Class of executed instruction
system.cpu1.op_class::SimdFloatMultAcc              0      0.00%     86.90% # Class of executed instruction
system.cpu1.op_class::SimdFloatSqrt                 0      0.00%     86.90% # Class of executed instruction
system.cpu1.op_class::MemRead               284998941     11.32%     98.22% # Class of executed instruction
system.cpu1.op_class::MemWrite               44869546      1.78%    100.00% # Class of executed instruction
system.cpu1.op_class::IprAccess                     0      0.00%    100.00% # Class of executed instruction
system.cpu1.op_class::InstPrefetch                  0      0.00%    100.00% # Class of executed instruction
system.cpu1.op_class::total                2518484076                       # Class of executed instruction
system.cpu2.apic_clk_domain.clock                8000                       # Clock period in ticks
system.cpu2.numCycles                      6645988698                       # number of cpu cycles simulated
system.cpu2.numWorkItemsStarted                     0                       # number of work items this cpu started
system.cpu2.numWorkItemsCompleted                   0                       # number of work items this cpu completed
system.cpu2.kern.inst.arm                           0                       # number of arm instructions executed
system.cpu2.kern.inst.quiesce                       0                       # number of quiesce instructions executed
system.cpu2.committedInsts                    3564319                       # Number of instructions committed
system.cpu2.committedOps                      7338091                       # Number of ops (including micro ops) committed
system.cpu2.num_int_alu_accesses              7192827                       # Number of integer alu accesses
system.cpu2.num_fp_alu_accesses                  3564                       # Number of float alu accesses
system.cpu2.num_func_calls                     192604                       # number of times a function call or return occured
system.cpu2.num_conditional_control_insts       531393                       # number of instructions that are conditional controls
system.cpu2.num_int_insts                     7192827                       # number of integer instructions
system.cpu2.num_fp_insts                         3564                       # number of float instructions
system.cpu2.num_int_register_reads           14636289                       # number of times the integer registers were read
system.cpu2.num_int_register_writes           5901349                       # number of times the integer registers were written
system.cpu2.num_fp_register_reads                5623                       # number of times the floating registers were read
system.cpu2.num_fp_register_writes               2757                       # number of times the floating registers were written
system.cpu2.num_cc_register_reads             4083002                       # number of times the CC registers were read
system.cpu2.num_cc_register_writes            2272888                       # number of times the CC registers were written
system.cpu2.num_mem_refs                      1760192                       # number of memory refs
system.cpu2.num_load_insts                    1086942                       # Number of load instructions
system.cpu2.num_store_insts                    673250                       # Number of store instructions
system.cpu2.num_idle_cycles              6625178198.512538                       # Number of idle cycles
system.cpu2.num_busy_cycles              20810499.487462                       # Number of busy cycles
system.cpu2.not_idle_fraction                0.003131                       # Percentage of non-idle cycles
system.cpu2.idle_fraction                    0.996869                       # Percentage of idle cycles
system.cpu2.Branches                           787073                       # Number of branches fetched
system.cpu2.op_class::No_OpClass               107117      1.46%      1.46% # Class of executed instruction
system.cpu2.op_class::IntAlu                  5421224     73.88%     75.34% # Class of executed instruction
system.cpu2.op_class::IntMult                   11971      0.16%     75.50% # Class of executed instruction
system.cpu2.op_class::IntDiv                    35227      0.48%     75.98% # Class of executed instruction
system.cpu2.op_class::FloatAdd                   2566      0.03%     76.01% # Class of executed instruction
system.cpu2.op_class::FloatCmp                      0      0.00%     76.01% # Class of executed instruction
system.cpu2.op_class::FloatCvt                     32      0.00%     76.01% # Class of executed instruction
system.cpu2.op_class::FloatMult                     0      0.00%     76.01% # Class of executed instruction
system.cpu2.op_class::FloatDiv                      0      0.00%     76.01% # Class of executed instruction
system.cpu2.op_class::FloatSqrt                     0      0.00%     76.01% # Class of executed instruction
system.cpu2.op_class::SimdAdd                       0      0.00%     76.01% # Class of executed instruction
system.cpu2.op_class::SimdAddAcc                    0      0.00%     76.01% # Class of executed instruction
system.cpu2.op_class::SimdAlu                       0      0.00%     76.01% # Class of executed instruction
system.cpu2.op_class::SimdCmp                       0      0.00%     76.01% # Class of executed instruction
system.cpu2.op_class::SimdCvt                       0      0.00%     76.01% # Class of executed instruction
system.cpu2.op_class::SimdMisc                      0      0.00%     76.01% # Class of executed instruction
system.cpu2.op_class::SimdMult                      0      0.00%     76.01% # Class of executed instruction
system.cpu2.op_class::SimdMultAcc                   0      0.00%     76.01% # Class of executed instruction
system.cpu2.op_class::SimdShift                     0      0.00%     76.01% # Class of executed instruction
system.cpu2.op_class::SimdShiftAcc                  0      0.00%     76.01% # Class of executed instruction
system.cpu2.op_class::SimdSqrt                      0      0.00%     76.01% # Class of executed instruction
system.cpu2.op_class::SimdFloatAdd                  0      0.00%     76.01% # Class of executed instruction
system.cpu2.op_class::SimdFloatAlu                  0      0.00%     76.01% # Class of executed instruction
system.cpu2.op_class::SimdFloatCmp                  0      0.00%     76.01% # Class of executed instruction
system.cpu2.op_class::SimdFloatCvt                  0      0.00%     76.01% # Class of executed instruction
system.cpu2.op_class::SimdFloatDiv                  0      0.00%     76.01% # Class of executed instruction
system.cpu2.op_class::SimdFloatMisc                 0      0.00%     76.01% # Class of executed instruction
system.cpu2.op_class::SimdFloatMult                 0      0.00%     76.01% # Class of executed instruction
system.cpu2.op_class::SimdFloatMultAcc              0      0.00%     76.01% # Class of executed instruction
system.cpu2.op_class::SimdFloatSqrt                 0      0.00%     76.01% # Class of executed instruction
system.cpu2.op_class::MemRead                 1086942     14.81%     90.83% # Class of executed instruction
system.cpu2.op_class::MemWrite                 673250      9.17%    100.00% # Class of executed instruction
system.cpu2.op_class::IprAccess                     0      0.00%    100.00% # Class of executed instruction
system.cpu2.op_class::InstPrefetch                  0      0.00%    100.00% # Class of executed instruction
system.cpu2.op_class::total                   7338329                       # Class of executed instruction
system.cpu3.apic_clk_domain.clock                8000                       # Clock period in ticks
system.cpu3.numCycles                      6642079059                       # number of cpu cycles simulated
system.cpu3.numWorkItemsStarted                     0                       # number of work items this cpu started
system.cpu3.numWorkItemsCompleted                   0                       # number of work items this cpu completed
system.cpu3.kern.inst.arm                           0                       # number of arm instructions executed
system.cpu3.kern.inst.quiesce                       0                       # number of quiesce instructions executed
system.cpu3.committedInsts                    2851113                       # Number of instructions committed
system.cpu3.committedOps                      6024698                       # Number of ops (including micro ops) committed
system.cpu3.num_int_alu_accesses              5891877                       # Number of integer alu accesses
system.cpu3.num_fp_alu_accesses                  7516                       # Number of float alu accesses
system.cpu3.num_func_calls                     163219                       # number of times a function call or return occured
system.cpu3.num_conditional_control_insts       424809                       # number of instructions that are conditional controls
system.cpu3.num_int_insts                     5891877                       # number of integer instructions
system.cpu3.num_fp_insts                         7516                       # number of float instructions
system.cpu3.num_int_register_reads           12020853                       # number of times the integer registers were read
system.cpu3.num_int_register_writes           4859209                       # number of times the integer registers were written
system.cpu3.num_fp_register_reads               12420                       # number of times the floating registers were read
system.cpu3.num_fp_register_writes               6032                       # number of times the floating registers were written
system.cpu3.num_cc_register_reads             3338659                       # number of times the CC registers were read
system.cpu3.num_cc_register_writes            1783454                       # number of times the CC registers were written
system.cpu3.num_mem_refs                      1453475                       # number of memory refs
system.cpu3.num_load_insts                     897640                       # Number of load instructions
system.cpu3.num_store_insts                    555835                       # Number of store instructions
system.cpu3.num_idle_cycles              6626152630.701632                       # Number of idle cycles
system.cpu3.num_busy_cycles              15926428.298368                       # Number of busy cycles
system.cpu3.not_idle_fraction                0.002398                       # Percentage of non-idle cycles
system.cpu3.idle_fraction                    0.997602                       # Percentage of idle cycles
system.cpu3.Branches                           643546                       # Number of branches fetched
system.cpu3.op_class::No_OpClass               105141      1.75%      1.75% # Class of executed instruction
system.cpu3.op_class::IntAlu                  4413330     73.25%     75.00% # Class of executed instruction
system.cpu3.op_class::IntMult                   11201      0.19%     75.18% # Class of executed instruction
system.cpu3.op_class::IntDiv                    35914      0.60%     75.78% # Class of executed instruction
system.cpu3.op_class::FloatAdd                   5760      0.10%     75.88% # Class of executed instruction
system.cpu3.op_class::FloatCmp                      0      0.00%     75.88% # Class of executed instruction
system.cpu3.op_class::FloatCvt                      0      0.00%     75.88% # Class of executed instruction
system.cpu3.op_class::FloatMult                     0      0.00%     75.88% # Class of executed instruction
system.cpu3.op_class::FloatDiv                      0      0.00%     75.88% # Class of executed instruction
system.cpu3.op_class::FloatSqrt                     0      0.00%     75.88% # Class of executed instruction
system.cpu3.op_class::SimdAdd                       0      0.00%     75.88% # Class of executed instruction
system.cpu3.op_class::SimdAddAcc                    0      0.00%     75.88% # Class of executed instruction
system.cpu3.op_class::SimdAlu                       0      0.00%     75.88% # Class of executed instruction
system.cpu3.op_class::SimdCmp                       0      0.00%     75.88% # Class of executed instruction
system.cpu3.op_class::SimdCvt                       0      0.00%     75.88% # Class of executed instruction
system.cpu3.op_class::SimdMisc                      0      0.00%     75.88% # Class of executed instruction
system.cpu3.op_class::SimdMult                      0      0.00%     75.88% # Class of executed instruction
system.cpu3.op_class::SimdMultAcc                   0      0.00%     75.88% # Class of executed instruction
system.cpu3.op_class::SimdShift                     0      0.00%     75.88% # Class of executed instruction
system.cpu3.op_class::SimdShiftAcc                  0      0.00%     75.88% # Class of executed instruction
system.cpu3.op_class::SimdSqrt                      0      0.00%     75.88% # Class of executed instruction
system.cpu3.op_class::SimdFloatAdd                  0      0.00%     75.88% # Class of executed instruction
system.cpu3.op_class::SimdFloatAlu                  0      0.00%     75.88% # Class of executed instruction
system.cpu3.op_class::SimdFloatCmp                  0      0.00%     75.88% # Class of executed instruction
system.cpu3.op_class::SimdFloatCvt                  0      0.00%     75.88% # Class of executed instruction
system.cpu3.op_class::SimdFloatDiv                  0      0.00%     75.88% # Class of executed instruction
system.cpu3.op_class::SimdFloatMisc                 0      0.00%     75.88% # Class of executed instruction
system.cpu3.op_class::SimdFloatMult                 0      0.00%     75.88% # Class of executed instruction
system.cpu3.op_class::SimdFloatMultAcc              0      0.00%     75.88% # Class of executed instruction
system.cpu3.op_class::SimdFloatSqrt                 0      0.00%     75.88% # Class of executed instruction
system.cpu3.op_class::MemRead                  897640     14.90%     90.77% # Class of executed instruction
system.cpu3.op_class::MemWrite                 555835      9.23%    100.00% # Class of executed instruction
system.cpu3.op_class::IprAccess                     0      0.00%    100.00% # Class of executed instruction
system.cpu3.op_class::InstPrefetch                  0      0.00%    100.00% # Class of executed instruction
system.cpu3.op_class::total                   6024821                       # Class of executed instruction
system.iobus.trans_dist::ReadReq                 1149                       # Transaction distribution
system.iobus.trans_dist::ReadResp                1149                       # Transaction distribution
system.iobus.trans_dist::WriteReq                3904                       # Transaction distribution
system.iobus.trans_dist::WriteResp               3904                       # Transaction distribution
system.iobus.trans_dist::MessageReq                57                       # Transaction distribution
system.iobus.trans_dist::MessageResp               57                       # Transaction distribution
system.iobus.pkt_count_system.pc.south_bridge.io_apic.int_master::system.ruby.l0_cntrl0.sequencer.pio-slave-port           14                       # Packet count per connected master and slave (bytes)
system.iobus.pkt_count_system.pc.south_bridge.io_apic.int_master::system.ruby.l0_cntrl1.sequencer.pio-slave-port           16                       # Packet count per connected master and slave (bytes)
system.iobus.pkt_count_system.pc.south_bridge.io_apic.int_master::system.ruby.l0_cntrl2.sequencer.pio-slave-port           16                       # Packet count per connected master and slave (bytes)
system.iobus.pkt_count_system.pc.south_bridge.io_apic.int_master::system.ruby.l0_cntrl3.sequencer.pio-slave-port           16                       # Packet count per connected master and slave (bytes)
system.iobus.pkt_count_system.pc.south_bridge.io_apic.int_master::total           62                       # Packet count per connected master and slave (bytes)
system.iobus.pkt_count_system.ruby.l0_cntrl0.sequencer.mem-master-port::system.pc.south_bridge.ide.pio          126                       # Packet count per connected master and slave (bytes)
system.iobus.pkt_count_system.ruby.l0_cntrl0.sequencer.mem-master-port::system.pc.south_bridge.io_apic.pio           40                       # Packet count per connected master and slave (bytes)
system.iobus.pkt_count_system.ruby.l0_cntrl0.sequencer.mem-master-port::system.pc.com_1.pio           10                       # Packet count per connected master and slave (bytes)
system.iobus.pkt_count_system.ruby.l0_cntrl0.sequencer.mem-master-port::system.ruby.l0_cntrl0.sequencer.pio-slave-port         1720                       # Packet count per connected master and slave (bytes)
system.iobus.pkt_count_system.ruby.l0_cntrl0.sequencer.mem-master-port::system.ruby.l0_cntrl1.sequencer.pio-slave-port            6                       # Packet count per connected master and slave (bytes)
system.iobus.pkt_count_system.ruby.l0_cntrl0.sequencer.mem-master-port::system.ruby.l0_cntrl2.sequencer.pio-slave-port            4                       # Packet count per connected master and slave (bytes)
system.iobus.pkt_count_system.ruby.l0_cntrl0.sequencer.mem-master-port::system.ruby.l0_cntrl3.sequencer.pio-slave-port            4                       # Packet count per connected master and slave (bytes)
system.iobus.pkt_count_system.ruby.l0_cntrl0.sequencer.mem-master-port::total         1910                       # Packet count per connected master and slave (bytes)
system.iobus.pkt_count_system.ruby.l0_cntrl1.sequencer.mem-master-port::system.pc.south_bridge.ide.pio           58                       # Packet count per connected master and slave (bytes)
system.iobus.pkt_count_system.ruby.l0_cntrl1.sequencer.mem-master-port::system.pc.south_bridge.io_apic.pio           40                       # Packet count per connected master and slave (bytes)
system.iobus.pkt_count_system.ruby.l0_cntrl1.sequencer.mem-master-port::system.pc.com_1.pio          500                       # Packet count per connected master and slave (bytes)
system.iobus.pkt_count_system.ruby.l0_cntrl1.sequencer.mem-master-port::system.ruby.l0_cntrl0.sequencer.pio-slave-port            8                       # Packet count per connected master and slave (bytes)
system.iobus.pkt_count_system.ruby.l0_cntrl1.sequencer.mem-master-port::system.ruby.l0_cntrl1.sequencer.pio-slave-port         1762                       # Packet count per connected master and slave (bytes)
system.iobus.pkt_count_system.ruby.l0_cntrl1.sequencer.mem-master-port::system.ruby.l0_cntrl2.sequencer.pio-slave-port           12                       # Packet count per connected master and slave (bytes)
system.iobus.pkt_count_system.ruby.l0_cntrl1.sequencer.mem-master-port::system.ruby.l0_cntrl3.sequencer.pio-slave-port            4                       # Packet count per connected master and slave (bytes)
system.iobus.pkt_count_system.ruby.l0_cntrl1.sequencer.mem-master-port::total         2384                       # Packet count per connected master and slave (bytes)
system.iobus.pkt_count_system.ruby.l0_cntrl2.sequencer.mem-master-port::system.pc.south_bridge.io_apic.pio           56                       # Packet count per connected master and slave (bytes)
system.iobus.pkt_count_system.ruby.l0_cntrl2.sequencer.mem-master-port::system.pc.com_1.pio         1750                       # Packet count per connected master and slave (bytes)
system.iobus.pkt_count_system.ruby.l0_cntrl2.sequencer.mem-master-port::system.ruby.l0_cntrl0.sequencer.pio-slave-port            2                       # Packet count per connected master and slave (bytes)
system.iobus.pkt_count_system.ruby.l0_cntrl2.sequencer.mem-master-port::system.ruby.l0_cntrl1.sequencer.pio-slave-port            6                       # Packet count per connected master and slave (bytes)
system.iobus.pkt_count_system.ruby.l0_cntrl2.sequencer.mem-master-port::system.ruby.l0_cntrl2.sequencer.pio-slave-port         1716                       # Packet count per connected master and slave (bytes)
system.iobus.pkt_count_system.ruby.l0_cntrl2.sequencer.mem-master-port::total         3530                       # Packet count per connected master and slave (bytes)
system.iobus.pkt_count_system.ruby.l0_cntrl3.sequencer.mem-master-port::system.pc.south_bridge.io_apic.pio           60                       # Packet count per connected master and slave (bytes)
system.iobus.pkt_count_system.ruby.l0_cntrl3.sequencer.mem-master-port::system.pc.com_1.pio          564                       # Packet count per connected master and slave (bytes)
system.iobus.pkt_count_system.ruby.l0_cntrl3.sequencer.mem-master-port::system.ruby.l0_cntrl0.sequencer.pio-slave-port            4                       # Packet count per connected master and slave (bytes)
system.iobus.pkt_count_system.ruby.l0_cntrl3.sequencer.mem-master-port::system.ruby.l0_cntrl1.sequencer.pio-slave-port            2                       # Packet count per connected master and slave (bytes)
system.iobus.pkt_count_system.ruby.l0_cntrl3.sequencer.mem-master-port::system.ruby.l0_cntrl3.sequencer.pio-slave-port         1704                       # Packet count per connected master and slave (bytes)
system.iobus.pkt_count_system.ruby.l0_cntrl3.sequencer.mem-master-port::total         2334                       # Packet count per connected master and slave (bytes)
system.iobus.pkt_count::total                   10220                       # Packet count per connected master and slave (bytes)
system.iobus.pkt_size_system.pc.south_bridge.io_apic.int_master::system.ruby.l0_cntrl0.sequencer.pio-slave-port           28                       # Cumulative packet size per connected master and slave (bytes)
system.iobus.pkt_size_system.pc.south_bridge.io_apic.int_master::system.ruby.l0_cntrl1.sequencer.pio-slave-port           32                       # Cumulative packet size per connected master and slave (bytes)
system.iobus.pkt_size_system.pc.south_bridge.io_apic.int_master::system.ruby.l0_cntrl2.sequencer.pio-slave-port           32                       # Cumulative packet size per connected master and slave (bytes)
system.iobus.pkt_size_system.pc.south_bridge.io_apic.int_master::system.ruby.l0_cntrl3.sequencer.pio-slave-port           32                       # Cumulative packet size per connected master and slave (bytes)
system.iobus.pkt_size_system.pc.south_bridge.io_apic.int_master::total          124                       # Cumulative packet size per connected master and slave (bytes)
system.iobus.pkt_size_system.ruby.l0_cntrl0.sequencer.mem-master-port::system.pc.south_bridge.ide.pio           72                       # Cumulative packet size per connected master and slave (bytes)
system.iobus.pkt_size_system.ruby.l0_cntrl0.sequencer.mem-master-port::system.pc.south_bridge.io_apic.pio           80                       # Cumulative packet size per connected master and slave (bytes)
system.iobus.pkt_size_system.ruby.l0_cntrl0.sequencer.mem-master-port::system.pc.com_1.pio            5                       # Cumulative packet size per connected master and slave (bytes)
system.iobus.pkt_size_system.ruby.l0_cntrl0.sequencer.mem-master-port::system.ruby.l0_cntrl0.sequencer.pio-slave-port         3440                       # Cumulative packet size per connected master and slave (bytes)
system.iobus.pkt_size_system.ruby.l0_cntrl0.sequencer.mem-master-port::system.ruby.l0_cntrl1.sequencer.pio-slave-port           12                       # Cumulative packet size per connected master and slave (bytes)
system.iobus.pkt_size_system.ruby.l0_cntrl0.sequencer.mem-master-port::system.ruby.l0_cntrl2.sequencer.pio-slave-port            8                       # Cumulative packet size per connected master and slave (bytes)
system.iobus.pkt_size_system.ruby.l0_cntrl0.sequencer.mem-master-port::system.ruby.l0_cntrl3.sequencer.pio-slave-port            8                       # Cumulative packet size per connected master and slave (bytes)
system.iobus.pkt_size_system.ruby.l0_cntrl0.sequencer.mem-master-port::total         3625                       # Cumulative packet size per connected master and slave (bytes)
system.iobus.pkt_size_system.ruby.l0_cntrl1.sequencer.mem-master-port::system.pc.south_bridge.ide.pio           32                       # Cumulative packet size per connected master and slave (bytes)
system.iobus.pkt_size_system.ruby.l0_cntrl1.sequencer.mem-master-port::system.pc.south_bridge.io_apic.pio           80                       # Cumulative packet size per connected master and slave (bytes)
system.iobus.pkt_size_system.ruby.l0_cntrl1.sequencer.mem-master-port::system.pc.com_1.pio          250                       # Cumulative packet size per connected master and slave (bytes)
system.iobus.pkt_size_system.ruby.l0_cntrl1.sequencer.mem-master-port::system.ruby.l0_cntrl0.sequencer.pio-slave-port           16                       # Cumulative packet size per connected master and slave (bytes)
system.iobus.pkt_size_system.ruby.l0_cntrl1.sequencer.mem-master-port::system.ruby.l0_cntrl1.sequencer.pio-slave-port         3524                       # Cumulative packet size per connected master and slave (bytes)
system.iobus.pkt_size_system.ruby.l0_cntrl1.sequencer.mem-master-port::system.ruby.l0_cntrl2.sequencer.pio-slave-port           24                       # Cumulative packet size per connected master and slave (bytes)
system.iobus.pkt_size_system.ruby.l0_cntrl1.sequencer.mem-master-port::system.ruby.l0_cntrl3.sequencer.pio-slave-port            8                       # Cumulative packet size per connected master and slave (bytes)
system.iobus.pkt_size_system.ruby.l0_cntrl1.sequencer.mem-master-port::total         3934                       # Cumulative packet size per connected master and slave (bytes)
system.iobus.pkt_size_system.ruby.l0_cntrl2.sequencer.mem-master-port::system.pc.south_bridge.io_apic.pio          112                       # Cumulative packet size per connected master and slave (bytes)
system.iobus.pkt_size_system.ruby.l0_cntrl2.sequencer.mem-master-port::system.pc.com_1.pio          875                       # Cumulative packet size per connected master and slave (bytes)
system.iobus.pkt_size_system.ruby.l0_cntrl2.sequencer.mem-master-port::system.ruby.l0_cntrl0.sequencer.pio-slave-port            4                       # Cumulative packet size per connected master and slave (bytes)
system.iobus.pkt_size_system.ruby.l0_cntrl2.sequencer.mem-master-port::system.ruby.l0_cntrl1.sequencer.pio-slave-port           12                       # Cumulative packet size per connected master and slave (bytes)
system.iobus.pkt_size_system.ruby.l0_cntrl2.sequencer.mem-master-port::system.ruby.l0_cntrl2.sequencer.pio-slave-port         3432                       # Cumulative packet size per connected master and slave (bytes)
system.iobus.pkt_size_system.ruby.l0_cntrl2.sequencer.mem-master-port::total         4435                       # Cumulative packet size per connected master and slave (bytes)
system.iobus.pkt_size_system.ruby.l0_cntrl3.sequencer.mem-master-port::system.pc.south_bridge.io_apic.pio          120                       # Cumulative packet size per connected master and slave (bytes)
system.iobus.pkt_size_system.ruby.l0_cntrl3.sequencer.mem-master-port::system.pc.com_1.pio          282                       # Cumulative packet size per connected master and slave (bytes)
system.iobus.pkt_size_system.ruby.l0_cntrl3.sequencer.mem-master-port::system.ruby.l0_cntrl0.sequencer.pio-slave-port            8                       # Cumulative packet size per connected master and slave (bytes)
system.iobus.pkt_size_system.ruby.l0_cntrl3.sequencer.mem-master-port::system.ruby.l0_cntrl1.sequencer.pio-slave-port            4                       # Cumulative packet size per connected master and slave (bytes)
system.iobus.pkt_size_system.ruby.l0_cntrl3.sequencer.mem-master-port::system.ruby.l0_cntrl3.sequencer.pio-slave-port         3408                       # Cumulative packet size per connected master and slave (bytes)
system.iobus.pkt_size_system.ruby.l0_cntrl3.sequencer.mem-master-port::total         3822                       # Cumulative packet size per connected master and slave (bytes)
system.iobus.pkt_size::total                    15940                       # Cumulative packet size per connected master and slave (bytes)
system.iobus.reqLayer2.occupancy               162000                       # Layer occupancy (ticks)
system.iobus.reqLayer2.utilization                0.0                       # Layer utilization (%)
system.iobus.reqLayer8.occupancy               169986                       # Layer occupancy (ticks)
system.iobus.reqLayer8.utilization                0.0                       # Layer utilization (%)
system.iobus.reqLayer12.occupancy             1829500                       # Layer occupancy (ticks)
system.iobus.reqLayer12.utilization               0.0                       # Layer utilization (%)
system.iobus.reqLayer17.occupancy             2102489                       # Layer occupancy (ticks)
system.iobus.reqLayer17.utilization               0.0                       # Layer utilization (%)
system.iobus.reqLayer18.occupancy             2415662                       # Layer occupancy (ticks)
system.iobus.reqLayer18.utilization               0.0                       # Layer utilization (%)
system.iobus.reqLayer19.occupancy             2091494                       # Layer occupancy (ticks)
system.iobus.reqLayer19.utilization               0.0                       # Layer utilization (%)
system.iobus.reqLayer20.occupancy             2078997                       # Layer occupancy (ticks)
system.iobus.reqLayer20.utilization               0.0                       # Layer utilization (%)
system.iobus.respLayer0.occupancy               41496                       # Layer occupancy (ticks)
system.iobus.respLayer0.utilization               0.0                       # Layer utilization (%)
system.iobus.respLayer2.occupancy             1420000                       # Layer occupancy (ticks)
system.iobus.respLayer2.utilization               0.0                       # Layer utilization (%)
system.iobus.respLayer4.occupancy             1849500                       # Layer occupancy (ticks)
system.iobus.respLayer4.utilization               0.0                       # Layer utilization (%)
system.iobus.respLayer6.occupancy             2863500                       # Layer occupancy (ticks)
system.iobus.respLayer6.utilization               0.0                       # Layer utilization (%)
system.iobus.respLayer8.occupancy             1821000                       # Layer occupancy (ticks)
system.iobus.respLayer8.utilization               0.0                       # Layer utilization (%)
system.pc.south_bridge.ide.disks.dma_read_full_pages            1                       # Number of full page size DMA reads (not PRD).
system.pc.south_bridge.ide.disks.dma_read_bytes         4096                       # Number of bytes transfered via DMA reads (not PRD).
system.pc.south_bridge.ide.disks.dma_read_txs            1                       # Number of DMA read transactions (not PRD).
system.pc.south_bridge.ide.disks.dma_write_full_pages           26                       # Number of full page size DMA writes.
system.pc.south_bridge.ide.disks.dma_write_bytes       106496                       # Number of bytes transfered via DMA writes.
system.pc.south_bridge.ide.disks.dma_write_txs           26                       # Number of DMA write transactions.
system.ruby.clk_domain.clock                      500                       # Clock period in ticks
system.ruby.delayHist::bucket_size                  4                       # delay histogram for all message
system.ruby.delayHist::max_bucket                  39                       # delay histogram for all message
system.ruby.delayHist::samples               95882183                       # delay histogram for all message
system.ruby.delayHist::mean                  0.104346                       # delay histogram for all message
system.ruby.delayHist::stdev                 0.908434                       # delay histogram for all message
[...]
system.ruby.L1Cache_Controller.L0_Ack::total       682651                      
system.ruby.L1Cache_Controller.Ack       |       15101     52.10%     52.10% |        7111     24.54%     76.64% |        3134     10.81%     87.45% |        3637     12.55%    100.00%
system.ruby.L1Cache_Controller.Ack::total        28983                      
system.ruby.L1Cache_Controller.Ack_all   |        6466     43.37%     43.37% |        3329     22.33%     65.70% |        2266     15.20%     80.90% |        2848     19.10%    100.00%
system.ruby.L1Cache_Controller.Ack_all::total        14909                      
system.ruby.L1Cache_Controller.WB_Ack    |       74919      1.30%      1.30% |     5625793     97.43%     98.73% |       47200      0.82%     99.54% |       26395      0.46%    100.00%
system.ruby.L1Cache_Controller.WB_Ack::total      5774307                      
system.ruby.L1Cache_Controller.I.Load    |      125825      2.28%      2.28% |     5211504     94.63%     96.92% |       93768      1.70%     98.62% |       76085      1.38%    100.00%
system.ruby.L1Cache_Controller.I.Load::total      5507182                      
system.ruby.L1Cache_Controller.I.Store   |       22674      3.70%      3.70% |      562109     91.71%     95.40% |       16611      2.71%     98.11% |       11559      1.89%    100.00%
system.ruby.L1Cache_Controller.I.Store::total       612953                      
system.ruby.L1Cache_Controller.I.Inv     |        4598     21.73%     21.73% |        8926     42.18%     63.90% |        3086     14.58%     78.48% |        4554     21.52%    100.00%
system.ruby.L1Cache_Controller.I.Inv::total        21164                      
system.ruby.L1Cache_Controller.S.Load    |      216699     27.58%     27.58% |      180852     23.02%     50.60% |      201308     25.62%     76.22% |      186822     23.78%    100.00%
system.ruby.L1Cache_Controller.S.Load::total       785681                      
system.ruby.L1Cache_Controller.S.Store   |        3897     38.05%     38.05% |        2230     21.78%     59.83% |        2135     20.85%     80.68% |        1979     19.32%    100.00%
system.ruby.L1Cache_Controller.S.Store::total        10241                      
system.ruby.L1Cache_Controller.S.L0_Invalidate_Own |       52937     19.65%     19.65% |      138808     51.52%     71.16% |       39510     14.66%     85.83% |       38191     14.17%    100.00%
system.ruby.L1Cache_Controller.S.L0_Invalidate_Own::total       269446                      
system.ruby.L1Cache_Controller.S.L0_Invalidate_Else |        7284     23.20%     23.20% |         822      2.62%     25.81% |       12673     40.36%     66.17% |       10622     33.83%    100.00%
system.ruby.L1Cache_Controller.S.L0_Invalidate_Else::total        31401                      
system.ruby.L1Cache_Controller.SS.Load   |        4320     45.16%     45.16% |         753      7.87%     53.03% |        3472     36.30%     89.33% |        1021     10.67%    100.00%
system.ruby.L1Cache_Controller.SS.Load::total         9566                      
system.ruby.L1Cache_Controller.SS.Store  |        1137     87.39%     87.39% |          85      6.53%     93.93% |          54      4.15%     98.08% |          25      1.92%    100.00%
system.ruby.L1Cache_Controller.SS.Store::total         1301                      
system.ruby.L1Cache_Controller.SS.Inv    |        9834     23.94%     23.94% |        1612      3.92%     27.86% |       15605     37.98%     65.84% |       14034     34.16%    100.00%
system.ruby.L1Cache_Controller.SS.Inv::total        41085                      
system.ruby.L1Cache_Controller.SS.L1_Replacement |       53482     19.49%     19.49% |      141524     51.57%     71.06% |       40147     14.63%     85.70% |       39253     14.30%    100.00%
system.ruby.L1Cache_Controller.SS.L1_Replacement::total       274406                      
system.ruby.L1Cache_Controller.E.WriteBack |       63740      1.27%      1.27% |     4877631     97.44%     98.72% |       39318      0.79%     99.50% |       24890      0.50%    100.00%
system.ruby.L1Cache_Controller.E.WriteBack::total      5005579                      
system.ruby.L1Cache_Controller.E.L0_Invalidate_Own |         698      0.36%      0.36% |      192439     98.93%     99.29% |        1247      0.64%     99.93% |         133      0.07%    100.00%
system.ruby.L1Cache_Controller.E.L0_Invalidate_Own::total       194517                      
system.ruby.L1Cache_Controller.E.L0_Invalidate_Else |        1520     27.64%     27.64% |         260      4.73%     32.36% |        2662     48.40%     80.76% |        1058     19.24%    100.00%
system.ruby.L1Cache_Controller.E.L0_Invalidate_Else::total         5500                      
system.ruby.L1Cache_Controller.EE.Inv    |         496     23.18%     23.18% |          55      2.57%     25.75% |         838     39.16%     64.91% |         751     35.09%    100.00%
system.ruby.L1Cache_Controller.EE.Inv::total         2140                      
system.ruby.L1Cache_Controller.EE.L1_Replacement |         578      0.30%      0.30% |      191017     99.02%     99.32% |        1205      0.62%     99.94% |         112      0.06%    100.00%
system.ruby.L1Cache_Controller.EE.L1_Replacement::total       192912                      
system.ruby.L1Cache_Controller.EE.Fwd_GETX |           4     28.57%     28.57% |           6     42.86%     71.43% |           4     28.57%    100.00% |           0      0.00%    100.00%
system.ruby.L1Cache_Controller.EE.Fwd_GETX::total           14                      
system.ruby.L1Cache_Controller.EE.Fwd_GETS |         876     31.96%     31.96% |         162      5.91%     37.87% |        1610     58.74%     96.61% |          93      3.39%    100.00%
system.ruby.L1Cache_Controller.EE.Fwd_GETS::total         2741                      
system.ruby.L1Cache_Controller.M.WriteBack |      220253      0.40%      0.40% |    55187267     99.18%     99.57% |      132646      0.24%     99.81% |      104856      0.19%    100.00%
system.ruby.L1Cache_Controller.M.WriteBack::total     55645022                      
system.ruby.L1Cache_Controller.M.L0_Invalidate_Own |        3870      1.97%      1.97% |      188485     95.71%     97.67% |        2734      1.39%     99.06% |        1845      0.94%    100.00%
system.ruby.L1Cache_Controller.M.L0_Invalidate_Own::total       196934                      
system.ruby.L1Cache_Controller.M.L0_Invalidate_Else |        4963     43.21%     43.21% |         419      3.65%     46.86% |        2977     25.92%     72.78% |        3127     27.22%    100.00%
system.ruby.L1Cache_Controller.M.L0_Invalidate_Else::total        11486                      
system.ruby.L1Cache_Controller.MM.Load   |      153546      0.29%      0.29% |    53146623     99.44%     99.73% |       81807      0.15%     99.88% |       64390      0.12%    100.00%
system.ruby.L1Cache_Controller.MM.Load::total     53446366                      
system.ruby.L1Cache_Controller.MM.Store  |       47829      2.68%      2.68% |     1665113     93.41%     96.10% |       37760      2.12%     98.21% |       31844      1.79%    100.00%
system.ruby.L1Cache_Controller.MM.Store::total      1782546                      
system.ruby.L1Cache_Controller.MM.Inv    |        8749     33.97%     33.97% |        4314     16.75%     50.71% |        6170     23.95%     74.67% |        6525     25.33%    100.00%
system.ruby.L1Cache_Controller.MM.Inv::total        25758                      
system.ruby.L1Cache_Controller.MM.L1_Replacement |       74341      1.33%      1.33% |     5434776     97.37%     98.71% |       45995      0.82%     99.53% |       26283      0.47%    100.00%
system.ruby.L1Cache_Controller.MM.L1_Replacement::total      5581395                      
system.ruby.L1Cache_Controller.MM.Fwd_GETX |        1029     36.33%     36.33% |         528     18.64%     54.98% |         279      9.85%     64.83% |         996     35.17%    100.00%
system.ruby.L1Cache_Controller.MM.Fwd_GETX::total         2832                      
system.ruby.L1Cache_Controller.MM.Fwd_GETS |        7398     32.91%     32.91% |        4145     18.44%     51.35% |        5401     24.03%     75.38% |        5535     24.62%    100.00%
system.ruby.L1Cache_Controller.MM.Fwd_GETS::total        22479                      
system.ruby.L1Cache_Controller.IS.Data_Exclusive |       65959      1.27%      1.27% |     5070329     97.40%     98.67% |       43247      0.83%     99.50% |       26058      0.50%    100.00%
system.ruby.L1Cache_Controller.IS.Data_Exclusive::total      5205593                      
system.ruby.L1Cache_Controller.IS.DataS_fromL1 |        6470     25.65%     25.65% |        2982     11.82%     37.48% |        7686     30.48%     67.95% |        8082     32.05%    100.00%
system.ruby.L1Cache_Controller.IS.DataS_fromL1::total        25220                      
system.ruby.L1Cache_Controller.IS.Data_all_Acks |       53396     19.32%     19.32% |      138193     50.00%     69.32% |       42835     15.50%     84.82% |       41945     15.18%    100.00%
system.ruby.L1Cache_Controller.IS.Data_all_Acks::total       276369                      
system.ruby.L1Cache_Controller.IM.Data   |        1432     42.47%     42.47% |        1015     30.10%     72.57% |          79      2.34%     74.91% |         846     25.09%    100.00%
system.ruby.L1Cache_Controller.IM.Data::total         3372                      
system.ruby.L1Cache_Controller.IM.Data_all_Acks |       21242      3.48%      3.48% |      561095     92.05%     95.53% |       16534      2.71%     98.24% |       10715      1.76%    100.00%
system.ruby.L1Cache_Controller.IM.Data_all_Acks::total       609586                      
system.ruby.L1Cache_Controller.SM.Inv    |           0      0.00%      0.00% |           1     20.00%     20.00% |           2     40.00%     60.00% |           2     40.00%    100.00%
system.ruby.L1Cache_Controller.SM.Inv::total            5                      
system.ruby.L1Cache_Controller.SM.Ack    |       15101     52.10%     52.10% |        7111     24.54%     76.64% |        3134     10.81%     87.45% |        3637     12.55%    100.00%
system.ruby.L1Cache_Controller.SM.Ack::total        28983                      
system.ruby.L1Cache_Controller.SM.Ack_all |        6466     43.37%     43.37% |        3329     22.33%     65.70% |        2266     15.20%     80.90% |        2848     19.10%    100.00%
system.ruby.L1Cache_Controller.SM.Ack_all::total        14909                      
system.ruby.L1Cache_Controller.M_I.WB_Ack |       74919      1.30%      1.30% |     5625793     97.43%     98.73% |       47200      0.82%     99.54% |       26395      0.46%    100.00%
system.ruby.L1Cache_Controller.M_I.WB_Ack::total      5774307                      
system.ruby.L1Cache_Controller.S_IL0.L0_Invalidate_Own |       52937     19.65%     19.65% |      138808     51.52%     71.16% |       39510     14.66%     85.83% |       38191     14.17%    100.00%
system.ruby.L1Cache_Controller.S_IL0.L0_Invalidate_Own::total       269446                      
system.ruby.L1Cache_Controller.S_IL0.L0_Invalidate_Else |        7284     23.20%     23.20% |         822      2.62%     25.81% |       12673     40.36%     66.17% |       10622     33.83%    100.00%
system.ruby.L1Cache_Controller.S_IL0.L0_Invalidate_Else::total        31401                      
system.ruby.L1Cache_Controller.S_IL0.L0_Ack |       60221     20.02%     20.02% |      139630     46.41%     66.43% |       52183     17.35%     83.77% |       48813     16.23%    100.00%
system.ruby.L1Cache_Controller.S_IL0.L0_Ack::total       300847                      
system.ruby.L1Cache_Controller.E_IL0.L0_DataAck |         264     11.95%     11.95% |        1459     66.02%     77.96% |         252     11.40%     89.37% |         235     10.63%    100.00%
system.ruby.L1Cache_Controller.E_IL0.L0_DataAck::total         2210                      
system.ruby.L1Cache_Controller.E_IL0.L0_Invalidate_Own |         698      0.36%      0.36% |      192439     98.93%     99.29% |        1247      0.64%     99.93% |         133      0.07%    100.00%
system.ruby.L1Cache_Controller.E_IL0.L0_Invalidate_Own::total       194517                      
system.ruby.L1Cache_Controller.E_IL0.L0_Invalidate_Else |        1520     27.64%     27.64% |         260      4.73%     32.36% |        2662     48.40%     80.76% |        1058     19.24%    100.00%
system.ruby.L1Cache_Controller.E_IL0.L0_Invalidate_Else::total         5500                      
system.ruby.L1Cache_Controller.E_IL0.L0_Ack |        1954      0.99%      0.99% |      191240     96.68%     97.67% |        3657      1.85%     99.52% |         956      0.48%    100.00%
system.ruby.L1Cache_Controller.E_IL0.L0_Ack::total       197807                      
system.ruby.L1Cache_Controller.M_IL0.WriteBack |           0      0.00%      0.00% |           1    100.00%    100.00% |           0      0.00%    100.00% |           0      0.00%    100.00%
system.ruby.L1Cache_Controller.M_IL0.WriteBack::total            1                      
system.ruby.L1Cache_Controller.M_IL0.L0_DataAck |        5826     23.85%     23.85% |       11876     48.63%     72.48% |        3399     13.92%     86.40% |        3322     13.60%    100.00%
system.ruby.L1Cache_Controller.M_IL0.L0_DataAck::total        24423                      
system.ruby.L1Cache_Controller.M_IL0.L0_Invalidate_Own |        3870      1.97%      1.97% |      188485     95.71%     97.67% |        2734      1.39%     99.06% |        1845      0.94%    100.00%
system.ruby.L1Cache_Controller.M_IL0.L0_Invalidate_Own::total       196934                      
system.ruby.L1Cache_Controller.M_IL0.L0_Invalidate_Else |        4963     43.21%     43.21% |         419      3.65%     46.86% |        2977     25.92%     72.78% |        3127     27.22%    100.00%
system.ruby.L1Cache_Controller.M_IL0.L0_Invalidate_Else::total        11486                      
system.ruby.L1Cache_Controller.M_IL0.L0_Ack |        3007      1.63%      1.63% |      177027     96.21%     97.85% |        2312      1.26%     99.10% |        1650      0.90%    100.00%
system.ruby.L1Cache_Controller.M_IL0.L0_Ack::total       183996                      
system.ruby.L1Cache_Controller.MM_IL0.Inv |           0      0.00%      0.00% |           1    100.00%    100.00% |           0      0.00%    100.00% |           0      0.00%    100.00%
system.ruby.L1Cache_Controller.MM_IL0.Inv::total            1                      
system.ruby.L1Cache_Controller.MM_IL0.L0_Ack |           0      0.00%      0.00% |           1    100.00%    100.00% |           0      0.00%    100.00% |           0      0.00%    100.00%
system.ruby.L1Cache_Controller.MM_IL0.L0_Ack::total            1                      
system.ruby.L2Cache_Controller.L1_GETS        5507238      0.00%      0.00%
system.ruby.L2Cache_Controller.L1_GETX         612963      0.00%      0.00%
system.ruby.L2Cache_Controller.L1_UPGRADE        11542      0.00%      0.00%
system.ruby.L2Cache_Controller.L1_PUTX        5774307      0.00%      0.00%
system.ruby.L2Cache_Controller.L2_Replacement       763728      0.00%      0.00%
system.ruby.L2Cache_Controller.L2_Replacement_clean       789780      0.00%      0.00%
system.ruby.L2Cache_Controller.Mem_Data       1562674      0.00%      0.00%
system.ruby.L2Cache_Controller.Mem_Ack        1553515      0.00%      0.00%
system.ruby.L2Cache_Controller.WB_Data          23381      0.00%      0.00%
system.ruby.L2Cache_Controller.WB_Data_clean        27597      0.00%      0.00%
system.ruby.L2Cache_Controller.Ack              19779      0.00%      0.00%
system.ruby.L2Cache_Controller.Ack_all          12260      0.00%      0.00%
system.ruby.L2Cache_Controller.Unblock          25220      0.00%      0.00%
system.ruby.L2Cache_Controller.Exclusive_Unblock      5830089      0.00%      0.00%
system.ruby.L2Cache_Controller.MEM_Inv             14      0.00%      0.00%
system.ruby.L2Cache_Controller.NP.L1_GETS      1175987      0.00%      0.00%
system.ruby.L2Cache_Controller.NP.L1_GETX       386687      0.00%      0.00%
system.ruby.L2Cache_Controller.SS.L1_GETS       276357      0.00%      0.00%
system.ruby.L2Cache_Controller.SS.L1_GETX         3372      0.00%      0.00%
system.ruby.L2Cache_Controller.SS.L1_UPGRADE        11537      0.00%      0.00%
system.ruby.L2Cache_Controller.SS.L2_Replacement          303      0.00%      0.00%
system.ruby.L2Cache_Controller.SS.L2_Replacement_clean         9817      0.00%      0.00%
system.ruby.L2Cache_Controller.M.L1_GETS      4029612      0.00%      0.00%
system.ruby.L2Cache_Controller.M.L1_GETX       220053      0.00%      0.00%
system.ruby.L2Cache_Controller.M.L2_Replacement       761920      0.00%      0.00%
system.ruby.L2Cache_Controller.M.L2_Replacement_clean       753577      0.00%      0.00%
system.ruby.L2Cache_Controller.MT.L1_GETS        25220      0.00%      0.00%
system.ruby.L2Cache_Controller.MT.L1_GETX         2846      0.00%      0.00%
system.ruby.L2Cache_Controller.MT.L1_PUTX      5774307      0.00%      0.00%
system.ruby.L2Cache_Controller.MT.L2_Replacement         1505      0.00%      0.00%
system.ruby.L2Cache_Controller.MT.L2_Replacement_clean        26386      0.00%      0.00%
system.ruby.L2Cache_Controller.MT.MEM_Inv            7      0.00%      0.00%
system.ruby.L2Cache_Controller.M_I.L1_GETS            2      0.00%      0.00%
system.ruby.L2Cache_Controller.M_I.L1_GETX            2      0.00%      0.00%
system.ruby.L2Cache_Controller.M_I.Mem_Ack      1553515      0.00%      0.00%
system.ruby.L2Cache_Controller.MT_I.WB_Data         1103      0.00%      0.00%
system.ruby.L2Cache_Controller.MT_I.WB_Data_clean          297      0.00%      0.00%
system.ruby.L2Cache_Controller.MT_I.Ack_all          112      0.00%      0.00%
system.ruby.L2Cache_Controller.MT_I.MEM_Inv            7      0.00%      0.00%
system.ruby.L2Cache_Controller.MCT_I.WB_Data        12088      0.00%      0.00%
system.ruby.L2Cache_Controller.MCT_I.WB_Data_clean        12270      0.00%      0.00%
system.ruby.L2Cache_Controller.MCT_I.Ack_all         2028      0.00%      0.00%
system.ruby.L2Cache_Controller.I_I.Ack          19306      0.00%      0.00%
system.ruby.L2Cache_Controller.I_I.Ack_all         9817      0.00%      0.00%
system.ruby.L2Cache_Controller.S_I.Ack            473      0.00%      0.00%
system.ruby.L2Cache_Controller.S_I.Ack_all          303      0.00%      0.00%
system.ruby.L2Cache_Controller.ISS.L1_GETS            6      0.00%      0.00%
system.ruby.L2Cache_Controller.ISS.Mem_Data      1175981      0.00%      0.00%
system.ruby.L2Cache_Controller.IS.Mem_Data            6      0.00%      0.00%
system.ruby.L2Cache_Controller.IM.Mem_Data       386687      0.00%      0.00%
system.ruby.L2Cache_Controller.SS_MB.L1_GETS           35      0.00%      0.00%
system.ruby.L2Cache_Controller.SS_MB.L1_GETX            1      0.00%      0.00%
system.ruby.L2Cache_Controller.SS_MB.L1_UPGRADE            5      0.00%      0.00%
system.ruby.L2Cache_Controller.SS_MB.Exclusive_Unblock        14909      0.00%      0.00%
system.ruby.L2Cache_Controller.MT_MB.L1_GETS           13      0.00%      0.00%
system.ruby.L2Cache_Controller.MT_MB.L1_GETX            2      0.00%      0.00%
system.ruby.L2Cache_Controller.MT_MB.Exclusive_Unblock      5815180      0.00%      0.00%
system.ruby.L2Cache_Controller.MT_IIB.L1_GETS            6      0.00%      0.00%
system.ruby.L2Cache_Controller.MT_IIB.WB_Data        10184      0.00%      0.00%
system.ruby.L2Cache_Controller.MT_IIB.WB_Data_clean        15005      0.00%      0.00%
system.ruby.L2Cache_Controller.MT_IIB.Unblock           31      0.00%      0.00%
system.ruby.L2Cache_Controller.MT_IB.WB_Data            6      0.00%      0.00%
system.ruby.L2Cache_Controller.MT_IB.WB_Data_clean           25      0.00%      0.00%
system.ruby.L2Cache_Controller.MT_SB.Unblock        25189      0.00%      0.00%

---------- End Simulation Statistics   ----------
