
---------- Begin Simulation Statistics ----------
sim_seconds                                  1.253766                       # Number of seconds simulated
sim_ticks                                1253765932000                       # Number of ticks simulated
final_tick                               53444769442501                       # Number of ticks from beginning of simulation (restored from checkpoints and never reset)
sim_freq                                 1000000000000                       # Frequency of simulated ticks
host_inst_rate                                 131853                       # Simulator instruction rate (inst/s)
host_op_rate                                   176456                       # Simulator op (including micro ops) rate (op/s)
host_tick_rate                              305160848                       # Simulator tick rate (ticks/s)
host_mem_usage                                1812308                       # Number of bytes of host memory used
host_seconds                                  4108.54                       # Real time elapsed on the host
sim_insts                                   541725060                       # Number of instructions simulated
sim_ops                                     724977022                       # Number of ops (including micro ops) simulated
system.voltage_domain.voltage                       1                       # Voltage in Volts
system.clk_domain.clock                          1000                       # Clock period in ticks
system.mem_ctrls.bytes_read::ruby.dir_cntrl0    170391104                       # Number of bytes read from this memory
system.mem_ctrls.bytes_read::total          170391104                       # Number of bytes read from this memory
system.mem_ctrls.bytes_written::ruby.dir_cntrl0    100717056                       # Number of bytes written to this memory
system.mem_ctrls.bytes_written::total       100717056                       # Number of bytes written to this memory
system.mem_ctrls.num_reads::ruby.dir_cntrl0      2662361                       # Number of read requests responded to by this memory
system.mem_ctrls.num_reads::total             2662361                       # Number of read requests responded to by this memory
system.mem_ctrls.num_writes::ruby.dir_cntrl0      1573704                       # Number of write requests responded to by this memory
system.mem_ctrls.num_writes::total            1573704                       # Number of write requests responded to by this memory
system.mem_ctrls.bw_read::ruby.dir_cntrl0    135903441                       # Total read bandwidth from this memory (bytes/s)
system.mem_ctrls.bw_read::total             135903441                       # Total read bandwidth from this memory (bytes/s)
system.mem_ctrls.bw_write::ruby.dir_cntrl0     80331626                       # Write bandwidth from this memory (bytes/s)
system.mem_ctrls.bw_write::total             80331626                       # Write bandwidth from this memory (bytes/s)
system.mem_ctrls.bw_total::ruby.dir_cntrl0    216235067                       # Total bandwidth to/from this memory (bytes/s)
system.mem_ctrls.bw_total::total            216235067                       # Total bandwidth to/from this memory (bytes/s)
system.mem_ctrls.readReqs                     2662361                       # Number of read requests accepted
system.mem_ctrls.writeReqs                    1573704                       # Number of write requests accepted
system.mem_ctrls.readBursts                   2662361                       # Number of DRAM read bursts, including those serviced by the write queue
system.mem_ctrls.writeBursts                  1573704                       # Number of DRAM write bursts, including those merged in the write queue
system.mem_ctrls.bytesReadDRAM              170350848                       # Total number of bytes read from DRAM
system.mem_ctrls.bytesReadWrQ                   40256                       # Total number of bytes read from write queue
system.mem_ctrls.bytesWritten               100717120                       # Total number of bytes written to DRAM
system.mem_ctrls.bytesReadSys               170391104                       # Total read bytes from the system interface side
system.mem_ctrls.bytesWrittenSys            100717056                       # Total written bytes from the system interface side
system.mem_ctrls.servicedByWrQ                    629                       # Number of DRAM read bursts serviced by the write queue
system.mem_ctrls.mergedWrBursts                     0                       # Number of DRAM write bursts merged with an existing one
system.mem_ctrls.neitherReadNorWriteReqs            0                       # Number of requests that are neither read nor write
system.mem_ctrls.perBankRdBursts::0            167214                       # Per bank write bursts
system.mem_ctrls.perBankRdBursts::1            169072                       # Per bank write bursts
system.mem_ctrls.perBankRdBursts::2            164571                       # Per bank write bursts
system.mem_ctrls.perBankRdBursts::3            164904                       # Per bank write bursts
system.mem_ctrls.perBankRdBursts::4            167978                       # Per bank write bursts
system.mem_ctrls.perBankRdBursts::5            166466                       # Per bank write bursts
system.mem_ctrls.perBankRdBursts::6            169805                       # Per bank write bursts
system.mem_ctrls.perBankRdBursts::7            164919                       # Per bank write bursts
system.mem_ctrls.perBankRdBursts::8            166260                       # Per bank write bursts
system.mem_ctrls.perBankRdBursts::9            165826                       # Per bank write bursts
system.mem_ctrls.perBankRdBursts::10           164218                       # Per bank write bursts
system.mem_ctrls.perBankRdBursts::11           164810                       # Per bank write bursts
system.mem_ctrls.perBankRdBursts::12           165047                       # Per bank write bursts
system.mem_ctrls.perBankRdBursts::13           165486                       # Per bank write bursts
system.mem_ctrls.perBankRdBursts::14           166908                       # Per bank write bursts
system.mem_ctrls.perBankRdBursts::15           168248                       # Per bank write bursts
system.mem_ctrls.perBankWrBursts::0             97764                       # Per bank write bursts
system.mem_ctrls.perBankWrBursts::1            101956                       # Per bank write bursts
system.mem_ctrls.perBankWrBursts::2             97591                       # Per bank write bursts
system.mem_ctrls.perBankWrBursts::3             96974                       # Per bank write bursts
system.mem_ctrls.perBankWrBursts::4             98364                       # Per bank write bursts
system.mem_ctrls.perBankWrBursts::5             98546                       # Per bank write bursts
system.mem_ctrls.perBankWrBursts::6            100588                       # Per bank write bursts
system.mem_ctrls.perBankWrBursts::7             97736                       # Per bank write bursts
system.mem_ctrls.perBankWrBursts::8             98897                       # Per bank write bursts
system.mem_ctrls.perBankWrBursts::9             98005                       # Per bank write bursts
system.mem_ctrls.perBankWrBursts::10            97134                       # Per bank write bursts
system.mem_ctrls.perBankWrBursts::11            97601                       # Per bank write bursts
system.mem_ctrls.perBankWrBursts::12            97894                       # Per bank write bursts
system.mem_ctrls.perBankWrBursts::13            97623                       # Per bank write bursts
system.mem_ctrls.perBankWrBursts::14            98497                       # Per bank write bursts
system.mem_ctrls.perBankWrBursts::15            98535                       # Per bank write bursts
system.mem_ctrls.numRdRetry                         0                       # Number of times read queue was full causing retry
system.mem_ctrls.numWrRetry                         0                       # Number of times write queue was full causing retry
system.mem_ctrls.totGap                  1253765857000                       # Total gap between requests
system.mem_ctrls.readPktSize::0                     0                       # Read request sizes (log2)
system.mem_ctrls.readPktSize::1                     0                       # Read request sizes (log2)
system.mem_ctrls.readPktSize::2                     0                       # Read request sizes (log2)
system.mem_ctrls.readPktSize::3                     0                       # Read request sizes (log2)
system.mem_ctrls.readPktSize::4                     0                       # Read request sizes (log2)
system.mem_ctrls.readPktSize::5                     0                       # Read request sizes (log2)
system.mem_ctrls.readPktSize::6               2662361                       # Read request sizes (log2)
system.mem_ctrls.writePktSize::0                    0                       # Write request sizes (log2)
system.mem_ctrls.writePktSize::1                    0                       # Write request sizes (log2)
system.mem_ctrls.writePktSize::2                    0                       # Write request sizes (log2)
system.mem_ctrls.writePktSize::3                    0                       # Write request sizes (log2)
system.mem_ctrls.writePktSize::4                    0                       # Write request sizes (log2)
system.mem_ctrls.writePktSize::5                    0                       # Write request sizes (log2)
system.mem_ctrls.writePktSize::6              1573704                       # Write request sizes (log2)
system.mem_ctrls.rdQLenPdf::0                 2653998                       # What read queue length does an incoming req see
system.mem_ctrls.rdQLenPdf::1                    7726                       # What read queue length does an incoming req see
system.mem_ctrls.rdQLenPdf::2                       8                       # What read queue length does an incoming req see
system.mem_ctrls.rdQLenPdf::3                       0                       # What read queue length does an incoming req see
system.mem_ctrls.rdQLenPdf::4                       0                       # What read queue length does an incoming req see
system.mem_ctrls.rdQLenPdf::5                       0                       # What read queue length does an incoming req see
system.mem_ctrls.rdQLenPdf::6                       0                       # What read queue length does an incoming req see
system.mem_ctrls.rdQLenPdf::7                       0                       # What read queue length does an incoming req see
system.mem_ctrls.rdQLenPdf::8                       0                       # What read queue length does an incoming req see
system.mem_ctrls.rdQLenPdf::9                       0                       # What read queue length does an incoming req see
system.mem_ctrls.rdQLenPdf::10                      0                       # What read queue length does an incoming req see
system.mem_ctrls.rdQLenPdf::11                      0                       # What read queue length does an incoming req see
system.mem_ctrls.rdQLenPdf::12                      0                       # What read queue length does an incoming req see
system.mem_ctrls.rdQLenPdf::13                      0                       # What read queue length does an incoming req see
system.mem_ctrls.rdQLenPdf::14                      0                       # What read queue length does an incoming req see
system.mem_ctrls.rdQLenPdf::15                      0                       # What read queue length does an incoming req see
system.mem_ctrls.rdQLenPdf::16                      0                       # What read queue length does an incoming req see
system.mem_ctrls.rdQLenPdf::17                      0                       # What read queue length does an incoming req see
system.mem_ctrls.rdQLenPdf::18                      0                       # What read queue length does an incoming req see
system.mem_ctrls.rdQLenPdf::19                      0                       # What read queue length does an incoming req see
system.mem_ctrls.rdQLenPdf::20                      0                       # What read queue length does an incoming req see
system.mem_ctrls.rdQLenPdf::21                      0                       # What read queue length does an incoming req see
system.mem_ctrls.rdQLenPdf::22                      0                       # What read queue length does an incoming req see
system.mem_ctrls.rdQLenPdf::23                      0                       # What read queue length does an incoming req see
system.mem_ctrls.rdQLenPdf::24                      0                       # What read queue length does an incoming req see
system.mem_ctrls.rdQLenPdf::25                      0                       # What read queue length does an incoming req see
system.mem_ctrls.rdQLenPdf::26                      0                       # What read queue length does an incoming req see
system.mem_ctrls.rdQLenPdf::27                      0                       # What read queue length does an incoming req see
system.mem_ctrls.rdQLenPdf::28                      0                       # What read queue length does an incoming req see
system.mem_ctrls.rdQLenPdf::29                      0                       # What read queue length does an incoming req see
system.mem_ctrls.rdQLenPdf::30                      0                       # What read queue length does an incoming req see
system.mem_ctrls.rdQLenPdf::31                      0                       # What read queue length does an incoming req see
system.mem_ctrls.wrQLenPdf::0                       0                       # What write queue length does an incoming req see
system.mem_ctrls.wrQLenPdf::1                       0                       # What write queue length does an incoming req see
system.mem_ctrls.wrQLenPdf::2                       0                       # What write queue length does an incoming req see
system.mem_ctrls.wrQLenPdf::3                       0                       # What write queue length does an incoming req see
system.mem_ctrls.wrQLenPdf::4                       0                       # What write queue length does an incoming req see
system.mem_ctrls.wrQLenPdf::5                       0                       # What write queue length does an incoming req see
system.mem_ctrls.wrQLenPdf::6                       0                       # What write queue length does an incoming req see
system.mem_ctrls.wrQLenPdf::7                       0                       # What write queue length does an incoming req see
system.mem_ctrls.wrQLenPdf::8                       0                       # What write queue length does an incoming req see
system.mem_ctrls.wrQLenPdf::9                       0                       # What write queue length does an incoming req see
system.mem_ctrls.wrQLenPdf::10                      0                       # What write queue length does an incoming req see
system.mem_ctrls.wrQLenPdf::11                      0                       # What write queue length does an incoming req see
system.mem_ctrls.wrQLenPdf::12                      0                       # What write queue length does an incoming req see
system.mem_ctrls.wrQLenPdf::13                      0                       # What write queue length does an incoming req see
system.mem_ctrls.wrQLenPdf::14                      0                       # What write queue length does an incoming req see
system.mem_ctrls.wrQLenPdf::15                   1131                       # What write queue length does an incoming req see
system.mem_ctrls.wrQLenPdf::16                   1297                       # What write queue length does an incoming req see
system.mem_ctrls.wrQLenPdf::17                  97089                       # What write queue length does an incoming req see
system.mem_ctrls.wrQLenPdf::18                  98271                       # What write queue length does an incoming req see
system.mem_ctrls.wrQLenPdf::19                  98292                       # What write queue length does an incoming req see
system.mem_ctrls.wrQLenPdf::20                  98299                       # What write queue length does an incoming req see
system.mem_ctrls.wrQLenPdf::21                  98298                       # What write queue length does an incoming req see
system.mem_ctrls.wrQLenPdf::22                  98310                       # What write queue length does an incoming req see
system.mem_ctrls.wrQLenPdf::23                  98312                       # What write queue length does an incoming req see
system.mem_ctrls.wrQLenPdf::24                  98305                       # What write queue length does an incoming req see
system.mem_ctrls.wrQLenPdf::25                  98307                       # What write queue length does an incoming req see
system.mem_ctrls.wrQLenPdf::26                  98316                       # What write queue length does an incoming req see
system.mem_ctrls.wrQLenPdf::27                  98279                       # What write queue length does an incoming req see
system.mem_ctrls.wrQLenPdf::28                  98265                       # What write queue length does an incoming req see
system.mem_ctrls.wrQLenPdf::29                  98254                       # What write queue length does an incoming req see
system.mem_ctrls.wrQLenPdf::30                  98242                       # What write queue length does an incoming req see
system.mem_ctrls.wrQLenPdf::31                  98223                       # What write queue length does an incoming req see
system.mem_ctrls.wrQLenPdf::32                  98209                       # What write queue length does an incoming req see
system.mem_ctrls.wrQLenPdf::33                      5                       # What write queue length does an incoming req see
system.mem_ctrls.wrQLenPdf::34                      0                       # What write queue length does an incoming req see
system.mem_ctrls.wrQLenPdf::35                      0                       # What write queue length does an incoming req see
system.mem_ctrls.wrQLenPdf::36                      0                       # What write queue length does an incoming req see
system.mem_ctrls.wrQLenPdf::37                      0                       # What write queue length does an incoming req see
system.mem_ctrls.wrQLenPdf::38                      0                       # What write queue length does an incoming req see
system.mem_ctrls.wrQLenPdf::39                      0                       # What write queue length does an incoming req see
system.mem_ctrls.wrQLenPdf::40                      0                       # What write queue length does an incoming req see
system.mem_ctrls.wrQLenPdf::41                      0                       # What write queue length does an incoming req see
system.mem_ctrls.wrQLenPdf::42                      0                       # What write queue length does an incoming req see
system.mem_ctrls.wrQLenPdf::43                      0                       # What write queue length does an incoming req see
system.mem_ctrls.wrQLenPdf::44                      0                       # What write queue length does an incoming req see
system.mem_ctrls.wrQLenPdf::45                      0                       # What write queue length does an incoming req see
system.mem_ctrls.wrQLenPdf::46                      0                       # What write queue length does an incoming req see
system.mem_ctrls.wrQLenPdf::47                      0                       # What write queue length does an incoming req see
system.mem_ctrls.wrQLenPdf::48                      0                       # What write queue length does an incoming req see
system.mem_ctrls.wrQLenPdf::49                      0                       # What write queue length does an incoming req see
system.mem_ctrls.wrQLenPdf::50                      0                       # What write queue length does an incoming req see
system.mem_ctrls.wrQLenPdf::51                      0                       # What write queue length does an incoming req see
system.mem_ctrls.wrQLenPdf::52                      0                       # What write queue length does an incoming req see
system.mem_ctrls.wrQLenPdf::53                      0                       # What write queue length does an incoming req see
system.mem_ctrls.wrQLenPdf::54                      0                       # What write queue length does an incoming req see
system.mem_ctrls.wrQLenPdf::55                      0                       # What write queue length does an incoming req see
system.mem_ctrls.wrQLenPdf::56                      0                       # What write queue length does an incoming req see
system.mem_ctrls.wrQLenPdf::57                      0                       # What write queue length does an incoming req see
system.mem_ctrls.wrQLenPdf::58                      0                       # What write queue length does an incoming req see
system.mem_ctrls.wrQLenPdf::59                      0                       # What write queue length does an incoming req see
system.mem_ctrls.wrQLenPdf::60                      0                       # What write queue length does an incoming req see
system.mem_ctrls.wrQLenPdf::61                      0                       # What write queue length does an incoming req see
system.mem_ctrls.wrQLenPdf::62                      0                       # What write queue length does an incoming req see
system.mem_ctrls.wrQLenPdf::63                      0                       # What write queue length does an incoming req see
system.mem_ctrls.bytesPerActivate::samples      1923812                       # Bytes accessed per row activation
system.mem_ctrls.bytesPerActivate::mean    140.901552                       # Bytes accessed per row activation
system.mem_ctrls.bytesPerActivate::gmean    91.852908                       # Bytes accessed per row activation
system.mem_ctrls.bytesPerActivate::stdev   201.560625                       # Bytes accessed per row activation
system.mem_ctrls.bytesPerActivate::0-127      1455978     75.68%     75.68% # Bytes accessed per row activation
system.mem_ctrls.bytesPerActivate::128-255       223274     11.61%     87.29% # Bytes accessed per row activation
system.mem_ctrls.bytesPerActivate::256-383        65568      3.41%     90.70% # Bytes accessed per row activation
system.mem_ctrls.bytesPerActivate::384-511        39808      2.07%     92.77% # Bytes accessed per row activation
system.mem_ctrls.bytesPerActivate::512-639        34771      1.81%     94.57% # Bytes accessed per row activation
system.mem_ctrls.bytesPerActivate::640-767        25509      1.33%     95.90% # Bytes accessed per row activation
system.mem_ctrls.bytesPerActivate::768-895        19590      1.02%     96.92% # Bytes accessed per row activation
system.mem_ctrls.bytesPerActivate::896-1023        15226      0.79%     97.71% # Bytes accessed per row activation
system.mem_ctrls.bytesPerActivate::1024-1151        44088      2.29%    100.00% # Bytes accessed per row activation
system.mem_ctrls.bytesPerActivate::total      1923812                       # Bytes accessed per row activation
system.mem_ctrls.rdPerTurnAround::samples        98200                       # Reads before turning the bus around for writes
system.mem_ctrls.rdPerTurnAround::mean      27.106120                       # Reads before turning the bus around for writes
system.mem_ctrls.rdPerTurnAround::gmean     24.461064                       # Reads before turning the bus around for writes
system.mem_ctrls.rdPerTurnAround::stdev     18.723104                       # Reads before turning the bus around for writes
system.mem_ctrls.rdPerTurnAround::0-31          71899     73.22%     73.22% # Reads before turning the bus around for writes
system.mem_ctrls.rdPerTurnAround::32-63         24159     24.60%     97.82% # Reads before turning the bus around for writes
system.mem_ctrls.rdPerTurnAround::64-95          1143      1.16%     98.98% # Reads before turning the bus around for writes
system.mem_ctrls.rdPerTurnAround::96-127          269      0.27%     99.26% # Reads before turning the bus around for writes
system.mem_ctrls.rdPerTurnAround::128-159          239      0.24%     99.50% # Reads before turning the bus around for writes
system.mem_ctrls.rdPerTurnAround::160-191          106      0.11%     99.61% # Reads before turning the bus around for writes
system.mem_ctrls.rdPerTurnAround::192-223          262      0.27%     99.87% # Reads before turning the bus around for writes
system.mem_ctrls.rdPerTurnAround::224-255           73      0.07%     99.95% # Reads before turning the bus around for writes
system.mem_ctrls.rdPerTurnAround::256-287           32      0.03%     99.98% # Reads before turning the bus around for writes
system.mem_ctrls.rdPerTurnAround::288-319            3      0.00%     99.98% # Reads before turning the bus around for writes
system.mem_ctrls.rdPerTurnAround::320-351            4      0.00%     99.99% # Reads before turning the bus around for writes
system.mem_ctrls.rdPerTurnAround::352-383            1      0.00%     99.99% # Reads before turning the bus around for writes
system.mem_ctrls.rdPerTurnAround::384-415            2      0.00%     99.99% # Reads before turning the bus around for writes
system.mem_ctrls.rdPerTurnAround::448-479            6      0.01%    100.00% # Reads before turning the bus around for writes
system.mem_ctrls.rdPerTurnAround::512-543            1      0.00%    100.00% # Reads before turning the bus around for writes
system.mem_ctrls.rdPerTurnAround::608-639            1      0.00%    100.00% # Reads before turning the bus around for writes
system.mem_ctrls.rdPerTurnAround::total         98200                       # Reads before turning the bus around for writes
system.mem_ctrls.wrPerTurnAround::samples        98200                       # Writes before turning the bus around for reads
system.mem_ctrls.wrPerTurnAround::mean      16.025509                       # Writes before turning the bus around for reads
system.mem_ctrls.wrPerTurnAround::gmean     16.024063                       # Writes before turning the bus around for reads
system.mem_ctrls.wrPerTurnAround::stdev      0.223906                       # Writes before turning the bus around for reads
system.mem_ctrls.wrPerTurnAround::16            96910     98.69%     98.69% # Writes before turning the bus around for reads
system.mem_ctrls.wrPerTurnAround::17              101      0.10%     98.79% # Writes before turning the bus around for reads
system.mem_ctrls.wrPerTurnAround::18             1163      1.18%     99.97% # Writes before turning the bus around for reads
system.mem_ctrls.wrPerTurnAround::19               26      0.03%    100.00% # Writes before turning the bus around for reads
system.mem_ctrls.wrPerTurnAround::total         98200                       # Writes before turning the bus around for reads
system.mem_ctrls.totQLat                  58167124077                       # Total ticks spent queuing
system.mem_ctrls.totMemAccLat            108074599077                       # Total ticks spent from burst creation until serviced by the DRAM
system.mem_ctrls.totBusLat                13308660000                       # Total ticks spent in databus transfers
system.mem_ctrls.avgQLat                     21853.11                       # Average queueing delay per DRAM burst
system.mem_ctrls.avgBusLat                    5000.00                       # Average bus latency per DRAM burst
system.mem_ctrls.avgMemAccLat                40603.11                       # Average memory access latency per DRAM burst
system.mem_ctrls.avgRdBW                       135.87                       # Average DRAM read bandwidth in MiByte/s
system.mem_ctrls.avgWrBW                        80.33                       # Average achieved write bandwidth in MiByte/s
system.mem_ctrls.avgRdBWSys                    135.90                       # Average system read bandwidth in MiByte/s
system.mem_ctrls.avgWrBWSys                     80.33                       # Average system write bandwidth in MiByte/s
system.mem_ctrls.peakBW                      12800.00                       # Theoretical peak bandwidth in MiByte/s
system.mem_ctrls.busUtil                         1.69                       # Data bus utilization in percentage
system.mem_ctrls.busUtilRead                     1.06                       # Data bus utilization in percentage for reads
system.mem_ctrls.busUtilWrite                    0.63                       # Data bus utilization in percentage for writes
system.mem_ctrls.avgRdQLen                       1.00                       # Average read queue length when enqueuing
system.mem_ctrls.avgWrQLen                      25.59                       # Average write queue length when enqueuing
system.mem_ctrls.readRowHits                  1488588                       # Number of row buffer hits during reads
system.mem_ctrls.writeRowHits                  823037                       # Number of row buffer hits during writes
system.mem_ctrls.readRowHitRate                 55.93                       # Row buffer hit rate for reads
system.mem_ctrls.writeRowHitRate                52.30                       # Row buffer hit rate for writes
system.mem_ctrls.avgGap                     295974.18                       # Average gap between requests
system.mem_ctrls.pageHitRate                    54.58                       # Row buffer hit rate, read and write combined
system.mem_ctrls_0.actEnergy               7333411680                       # Energy for activate commands per rank (pJ)
system.mem_ctrls_0.preEnergy               4001365500                       # Energy for precharge commands per rank (pJ)
system.mem_ctrls_0.readEnergy             10510344000                       # Energy for read commands per rank (pJ)
system.mem_ctrls_0.writeEnergy             5118597360                       # Energy for write commands per rank (pJ)
system.mem_ctrls_0.refreshEnergy          82350612240                       # Energy for refresh commands per rank (pJ)
system.mem_ctrls_0.actBackEnergy         272097299025                       # Energy for active background per rank (pJ)
system.mem_ctrls_0.preBackEnergy         517810120500                       # Energy for precharge background per rank (pJ)
system.mem_ctrls_0.totalEnergy           899221750305                       # Total energy per rank (pJ)
system.mem_ctrls_0.averagePower            713.203943                       # Core power per rank (mW)
system.mem_ctrls_0.memoryStateTime::IDLE 853511802250                       # Time in different power states
system.mem_ctrls_0.memoryStateTime::REF   41865980000                       # Time in different power states
system.mem_ctrls_0.memoryStateTime::PRE_PDN            0                       # Time in different power states
system.mem_ctrls_0.memoryStateTime::ACT  358388243750                       # Time in different power states
system.mem_ctrls_0.memoryStateTime::ACT_PDN            0                       # Time in different power states
system.mem_ctrls_1.actEnergy               7253192520                       # Energy for activate commands per rank (pJ)
system.mem_ctrls_1.preEnergy               3957595125                       # Energy for precharge commands per rank (pJ)
system.mem_ctrls_1.readEnergy             10449153000                       # Energy for read commands per rank (pJ)
system.mem_ctrls_1.writeEnergy             5084058960                       # Energy for write commands per rank (pJ)
system.mem_ctrls_1.refreshEnergy          82350612240                       # Energy for refresh commands per rank (pJ)
system.mem_ctrls_1.actBackEnergy         272408673780                       # Energy for active background per rank (pJ)
system.mem_ctrls_1.preBackEnergy         517536984750                       # Energy for precharge background per rank (pJ)
system.mem_ctrls_1.totalEnergy           899040270375                       # Total energy per rank (pJ)
system.mem_ctrls_1.averagePower            713.060005                       # Core power per rank (mW)
system.mem_ctrls_1.memoryStateTime::IDLE 853647301004                       # Time in different power states
system.mem_ctrls_1.memoryStateTime::REF   41865980000                       # Time in different power states
system.mem_ctrls_1.memoryStateTime::PRE_PDN            0                       # Time in different power states
system.mem_ctrls_1.memoryStateTime::ACT  358252052746                       # Time in different power states
system.mem_ctrls_1.memoryStateTime::ACT_PDN            0                       # Time in different power states
system.cpu_voltage_domain.voltage                   1                       # Voltage in Volts
system.cpu_clk_domain.clock                       500                       # Clock period in ticks
system.cpu0.apic_clk_domain.clock                8000                       # Clock period in ticks
system.cpu0.numCycles                      2506714657                       # number of cpu cycles simulated
system.cpu0.numWorkItemsStarted                     0                       # number of work items this cpu started
system.cpu0.numWorkItemsCompleted                   0                       # number of work items this cpu completed
system.cpu0.kern.inst.arm                           0                       # number of arm instructions executed
system.cpu0.kern.inst.quiesce                       0                       # number of quiesce instructions executed
system.cpu0.committedInsts                    1127058                       # Number of instructions committed
system.cpu0.committedOps                      2442046                       # Number of ops (including micro ops) committed
system.cpu0.num_int_alu_accesses              2388990                       # Number of integer alu accesses
system.cpu0.num_fp_alu_accesses                    39                       # Number of float alu accesses
system.cpu0.num_func_calls                      73374                       # number of times a function call or return occured
system.cpu0.num_conditional_control_insts       159072                       # number of instructions that are conditional controls
system.cpu0.num_int_insts                     2388990                       # number of integer instructions
system.cpu0.num_fp_insts                           39                       # number of float instructions
system.cpu0.num_int_register_reads            4869515                       # number of times the integer registers were read
system.cpu0.num_int_register_writes           1974481                       # number of times the integer registers were written
system.cpu0.num_fp_register_reads                  63                       # number of times the floating registers were read
system.cpu0.num_fp_register_writes                 31                       # number of times the floating registers were written
system.cpu0.num_cc_register_reads             1313549                       # number of times the CC registers were read
system.cpu0.num_cc_register_writes             721674                       # number of times the CC registers were written
system.cpu0.num_mem_refs                       579604                       # number of memory refs
system.cpu0.num_load_insts                     357315                       # Number of load instructions
system.cpu0.num_store_insts                    222289                       # Number of store instructions
system.cpu0.num_idle_cycles              2499832540.619424                       # Number of idle cycles
system.cpu0.num_busy_cycles              6882116.380576                       # Number of busy cycles
system.cpu0.not_idle_fraction                0.002745                       # Percentage of non-idle cycles
system.cpu0.idle_fraction                    0.997255                       # Percentage of idle cycles
system.cpu0.Branches                           254927                       # Number of branches fetched
system.cpu0.op_class::No_OpClass                40067      1.64%      1.64% # Class of executed instruction
system.cpu0.op_class::IntAlu                  1804782     73.90%     75.54% # Class of executed instruction
system.cpu0.op_class::IntMult                    4209      0.17%     75.72% # Class of executed instruction
system.cpu0.op_class::IntDiv                    13376      0.55%     76.26% # Class of executed instruction
system.cpu0.op_class::FloatAdd                     30      0.00%     76.27% # Class of executed instruction
system.cpu0.op_class::FloatCmp                      0      0.00%     76.27% # Class of executed instruction
system.cpu0.op_class::FloatCvt                      0      0.00%     76.27% # Class of executed instruction
system.cpu0.op_class::FloatMult                     0      0.00%     76.27% # Class of executed instruction
system.cpu0.op_class::FloatDiv                      0      0.00%     76.27% # Class of executed instruction
system.cpu0.op_class::FloatSqrt                     0      0.00%     76.27% # Class of executed instruction
system.cpu0.op_class::SimdAdd                       0      0.00%     76.27% # Class of executed instruction
system.cpu0.op_class::SimdAddAcc                    0      0.00%     76.27% # Class of executed instruction
system.cpu0.op_class::SimdAlu                       0      0.00%     76.27% # Class of executed instruction
system.cpu0.op_class::SimdCmp                       0      0.00%     76.27% # Class of executed instruction
system.cpu0.op_class::SimdCvt                       0      0.00%     76.27% # Class of executed instruction
system.cpu0.op_class::SimdMisc                      0      0.00%     76.27% # Class of executed instruction
system.cpu0.op_class::SimdMult                      0      0.00%     76.27% # Class of executed instruction
system.cpu0.op_class::SimdMultAcc                   0      0.00%     76.27% # Class of executed instruction
system.cpu0.op_class::SimdShift                     0      0.00%     76.27% # Class of executed instruction
system.cpu0.op_class::SimdShiftAcc                  0      0.00%     76.27% # Class of executed instruction
system.cpu0.op_class::SimdSqrt                      0      0.00%     76.27% # Class of executed instruction
system.cpu0.op_class::SimdFloatAdd                  0      0.00%     76.27% # Class of executed instruction
system.cpu0.op_class::SimdFloatAlu                  0      0.00%     76.27% # Class of executed instruction
system.cpu0.op_class::SimdFloatCmp                  0      0.00%     76.27% # Class of executed instruction
system.cpu0.op_class::SimdFloatCvt                  0      0.00%     76.27% # Class of executed instruction
system.cpu0.op_class::SimdFloatDiv                  0      0.00%     76.27% # Class of executed instruction
system.cpu0.op_class::SimdFloatMisc                 0      0.00%     76.27% # Class of executed instruction
system.cpu0.op_class::SimdFloatMult                 0      0.00%     76.27% # Class of executed instruction
system.cpu0.op_class::SimdFloatMultAcc              0      0.00%     76.27% # Class of executed instruction
system.cpu0.op_class::SimdFloatSqrt                 0      0.00%     76.27% # Class of executed instruction
system.cpu0.op_class::MemRead                  357315     14.63%     90.90% # Class of executed instruction
system.cpu0.op_class::MemWrite                 222289      9.10%    100.00% # Class of executed instruction
system.cpu0.op_class::IprAccess                     0      0.00%    100.00% # Class of executed instruction
system.cpu0.op_class::InstPrefetch                  0      0.00%    100.00% # Class of executed instruction
system.cpu0.op_class::total                   2442068                       # Class of executed instruction
system.cpu1.apic_clk_domain.clock                8000                       # Clock period in ticks
system.cpu1.numCycles                      2509636952                       # number of cpu cycles simulated
system.cpu1.numWorkItemsStarted                     0                       # number of work items this cpu started
system.cpu1.numWorkItemsCompleted                   0                       # number of work items this cpu completed
system.cpu1.kern.inst.arm                           0                       # number of arm instructions executed
system.cpu1.kern.inst.quiesce                       0                       # number of quiesce instructions executed
system.cpu1.committedInsts                  533901071                       # Number of instructions committed
system.cpu1.committedOps                    709271546                       # Number of ops (including micro ops) committed
system.cpu1.num_int_alu_accesses            508893242                       # Number of integer alu accesses
system.cpu1.num_fp_alu_accesses             331101068                       # Number of float alu accesses
system.cpu1.num_func_calls                     435555                       # number of times a function call or return occured
system.cpu1.num_conditional_control_insts     31473037                       # number of instructions that are conditional controls
system.cpu1.num_int_insts                   508893242                       # number of integer instructions
system.cpu1.num_fp_insts                    331101068                       # number of float instructions
system.cpu1.num_int_register_reads         1070297784                       # number of times the integer registers were read
system.cpu1.num_int_register_writes         339915358                       # number of times the integer registers were written
system.cpu1.num_fp_register_reads           564014582                       # number of times the floating registers were read
system.cpu1.num_fp_register_writes          276695748                       # number of times the floating registers were written
system.cpu1.num_cc_register_reads           220327129                       # number of times the CC registers were read
system.cpu1.num_cc_register_writes          241386208                       # number of times the CC registers were written
system.cpu1.num_mem_refs                    152863588                       # number of memory refs
system.cpu1.num_load_insts                   94777553                       # Number of load instructions
system.cpu1.num_store_insts                  58086035                       # Number of store instructions
system.cpu1.num_idle_cycles              10122510.778283                       # Number of idle cycles
system.cpu1.num_busy_cycles              2499514441.221717                       # Number of busy cycles
system.cpu1.not_idle_fraction                0.995967                       # Percentage of non-idle cycles
system.cpu1.idle_fraction                    0.004033                       # Percentage of idle cycles
system.cpu1.Branches                         33888443                       # Number of branches fetched
system.cpu1.op_class::No_OpClass               955439      0.13%      0.13% # Class of executed instruction
system.cpu1.op_class::IntAlu                444140313     62.62%     62.75% # Class of executed instruction
system.cpu1.op_class::IntMult                   25641      0.00%     62.76% # Class of executed instruction
system.cpu1.op_class::IntDiv                   145136      0.02%     62.78% # Class of executed instruction
system.cpu1.op_class::FloatAdd              111149730     15.67%     78.45% # Class of executed instruction
system.cpu1.op_class::FloatCmp                      0      0.00%     78.45% # Class of executed instruction
system.cpu1.op_class::FloatCvt                      0      0.00%     78.45% # Class of executed instruction
system.cpu1.op_class::FloatMult                     0      0.00%     78.45% # Class of executed instruction
system.cpu1.op_class::FloatDiv                      0      0.00%     78.45% # Class of executed instruction
system.cpu1.op_class::FloatSqrt                     0      0.00%     78.45% # Class of executed instruction
system.cpu1.op_class::SimdAdd                       0      0.00%     78.45% # Class of executed instruction
system.cpu1.op_class::SimdAddAcc                    0      0.00%     78.45% # Class of executed instruction
system.cpu1.op_class::SimdAlu                       0      0.00%     78.45% # Class of executed instruction
system.cpu1.op_class::SimdCmp                       0      0.00%     78.45% # Class of executed instruction
system.cpu1.op_class::SimdCvt                       0      0.00%     78.45% # Class of executed instruction
system.cpu1.op_class::SimdMisc                      0      0.00%     78.45% # Class of executed instruction
system.cpu1.op_class::SimdMult                      0      0.00%     78.45% # Class of executed instruction
system.cpu1.op_class::SimdMultAcc                   0      0.00%     78.45% # Class of executed instruction
system.cpu1.op_class::SimdShift                     0      0.00%     78.45% # Class of executed instruction
system.cpu1.op_class::SimdShiftAcc                  0      0.00%     78.45% # Class of executed instruction
system.cpu1.op_class::SimdSqrt                      0      0.00%     78.45% # Class of executed instruction
system.cpu1.op_class::SimdFloatAdd                  0      0.00%     78.45% # Class of executed instruction
system.cpu1.op_class::SimdFloatAlu                  0      0.00%     78.45% # Class of executed instruction
system.cpu1.op_class::SimdFloatCmp                  0      0.00%     78.45% # Class of executed instruction
system.cpu1.op_class::SimdFloatCvt                  0      0.00%     78.45% # Class of executed instruction
system.cpu1.op_class::SimdFloatDiv                  0      0.00%     78.45% # Class of executed instruction
system.cpu1.op_class::SimdFloatMisc                 0      0.00%     78.45% # Class of executed instruction
system.cpu1.op_class::SimdFloatMult                 0      0.00%     78.45% # Class of executed instruction
system.cpu1.op_class::SimdFloatMultAcc              0      0.00%     78.45% # Class of executed instruction
system.cpu1.op_class::SimdFloatSqrt                 0      0.00%     78.45% # Class of executed instruction
system.cpu1.op_class::MemRead                94777553     13.36%     91.81% # Class of executed instruction
system.cpu1.op_class::MemWrite               58086035      8.19%    100.00% # Class of executed instruction
system.cpu1.op_class::IprAccess                     0      0.00%    100.00% # Class of executed instruction
system.cpu1.op_class::InstPrefetch                  0      0.00%    100.00% # Class of executed instruction
system.cpu1.op_class::total                 709279847                       # Class of executed instruction
system.cpu2.apic_clk_domain.clock                8000                       # Clock period in ticks
system.cpu2.numCycles                      2503178995                       # number of cpu cycles simulated
system.cpu2.numWorkItemsStarted                     0                       # number of work items this cpu started
system.cpu2.numWorkItemsCompleted                   0                       # number of work items this cpu completed
system.cpu2.kern.inst.arm                           0                       # number of arm instructions executed
system.cpu2.kern.inst.quiesce                       0                       # number of quiesce instructions executed
system.cpu2.committedInsts                     932564                       # Number of instructions committed
system.cpu2.committedOps                      2009198                       # Number of ops (including micro ops) committed
system.cpu2.num_int_alu_accesses              1961175                       # Number of integer alu accesses
system.cpu2.num_fp_alu_accesses                     0                       # Number of float alu accesses
system.cpu2.num_func_calls                      54430                       # number of times a function call or return occured
system.cpu2.num_conditional_control_insts       144635                       # number of instructions that are conditional controls
system.cpu2.num_int_insts                     1961175                       # number of integer instructions
system.cpu2.num_fp_insts                            0                       # number of float instructions
system.cpu2.num_int_register_reads            3981926                       # number of times the integer registers were read
system.cpu2.num_int_register_writes           1628123                       # number of times the integer registers were written
system.cpu2.num_fp_register_reads                   0                       # number of times the floating registers were read
system.cpu2.num_fp_register_writes                  0                       # number of times the floating registers were written
system.cpu2.num_cc_register_reads             1141379                       # number of times the CC registers were read
system.cpu2.num_cc_register_writes             593362                       # number of times the CC registers were written
system.cpu2.num_mem_refs                       473491                       # number of memory refs
system.cpu2.num_load_insts                     296422                       # Number of load instructions
system.cpu2.num_store_insts                    177069                       # Number of store instructions
system.cpu2.num_idle_cycles              2497246516.203160                       # Number of idle cycles
system.cpu2.num_busy_cycles              5932478.796839                       # Number of busy cycles
system.cpu2.not_idle_fraction                0.002370                       # Percentage of non-idle cycles
system.cpu2.idle_fraction                    0.997630                       # Percentage of idle cycles
system.cpu2.Branches                           216921                       # Number of branches fetched
system.cpu2.op_class::No_OpClass                37400      1.86%      1.86% # Class of executed instruction
system.cpu2.op_class::IntAlu                  1481094     73.72%     75.58% # Class of executed instruction
system.cpu2.op_class::IntMult                    3832      0.19%     75.77% # Class of executed instruction
system.cpu2.op_class::IntDiv                    13384      0.67%     76.43% # Class of executed instruction
system.cpu2.op_class::FloatAdd                      0      0.00%     76.43% # Class of executed instruction
system.cpu2.op_class::FloatCmp                      0      0.00%     76.43% # Class of executed instruction
system.cpu2.op_class::FloatCvt                      0      0.00%     76.43% # Class of executed instruction
system.cpu2.op_class::FloatMult                     0      0.00%     76.43% # Class of executed instruction
system.cpu2.op_class::FloatDiv                      0      0.00%     76.43% # Class of executed instruction
system.cpu2.op_class::FloatSqrt                     0      0.00%     76.43% # Class of executed instruction
system.cpu2.op_class::SimdAdd                       0      0.00%     76.43% # Class of executed instruction
system.cpu2.op_class::SimdAddAcc                    0      0.00%     76.43% # Class of executed instruction
system.cpu2.op_class::SimdAlu                       0      0.00%     76.43% # Class of executed instruction
system.cpu2.op_class::SimdCmp                       0      0.00%     76.43% # Class of executed instruction
system.cpu2.op_class::SimdCvt                       0      0.00%     76.43% # Class of executed instruction
system.cpu2.op_class::SimdMisc                      0      0.00%     76.43% # Class of executed instruction
system.cpu2.op_class::SimdMult                      0      0.00%     76.43% # Class of executed instruction
system.cpu2.op_class::SimdMultAcc                   0      0.00%     76.43% # Class of executed instruction
system.cpu2.op_class::SimdShift                     0      0.00%     76.43% # Class of executed instruction
system.cpu2.op_class::SimdShiftAcc                  0      0.00%     76.43% # Class of executed instruction
system.cpu2.op_class::SimdSqrt                      0      0.00%     76.43% # Class of executed instruction
system.cpu2.op_class::SimdFloatAdd                  0      0.00%     76.43% # Class of executed instruction
system.cpu2.op_class::SimdFloatAlu                  0      0.00%     76.43% # Class of executed instruction
system.cpu2.op_class::SimdFloatCmp                  0      0.00%     76.43% # Class of executed instruction
system.cpu2.op_class::SimdFloatCvt                  0      0.00%     76.43% # Class of executed instruction
system.cpu2.op_class::SimdFloatDiv                  0      0.00%     76.43% # Class of executed instruction
system.cpu2.op_class::SimdFloatMisc                 0      0.00%     76.43% # Class of executed instruction
system.cpu2.op_class::SimdFloatMult                 0      0.00%     76.43% # Class of executed instruction
system.cpu2.op_class::SimdFloatMultAcc              0      0.00%     76.43% # Class of executed instruction
system.cpu2.op_class::SimdFloatSqrt                 0      0.00%     76.43% # Class of executed instruction
system.cpu2.op_class::MemRead                  296422     14.75%     91.19% # Class of executed instruction
system.cpu2.op_class::MemWrite                 177069      8.81%    100.00% # Class of executed instruction
system.cpu2.op_class::IprAccess                     0      0.00%    100.00% # Class of executed instruction
system.cpu2.op_class::InstPrefetch                  0      0.00%    100.00% # Class of executed instruction
system.cpu2.op_class::total                   2009201                       # Class of executed instruction
system.cpu3.apic_clk_domain.clock                8000                       # Clock period in ticks
system.cpu3.numCycles                      2505332475                       # number of cpu cycles simulated
system.cpu3.numWorkItemsStarted                     0                       # number of work items this cpu started
system.cpu3.numWorkItemsCompleted                   0                       # number of work items this cpu completed
system.cpu3.kern.inst.arm                           0                       # number of arm instructions executed
system.cpu3.kern.inst.quiesce                       0                       # number of quiesce instructions executed
system.cpu3.committedInsts                    2942571                       # Number of instructions committed
system.cpu3.committedOps                      5847522                       # Number of ops (including micro ops) committed
system.cpu3.num_int_alu_accesses              5745010                       # Number of integer alu accesses
system.cpu3.num_fp_alu_accesses                  1826                       # Number of float alu accesses
system.cpu3.num_func_calls                     149494                       # number of times a function call or return occured
system.cpu3.num_conditional_control_insts       495461                       # number of instructions that are conditional controls
system.cpu3.num_int_insts                     5745010                       # number of integer instructions
system.cpu3.num_fp_insts                         1826                       # number of float instructions
system.cpu3.num_int_register_reads           11441593                       # number of times the integer registers were read
system.cpu3.num_int_register_writes           4669395                       # number of times the integer registers were written
system.cpu3.num_fp_register_reads                3068                       # number of times the floating registers were read
system.cpu3.num_fp_register_writes               1448                       # number of times the floating registers were written
system.cpu3.num_cc_register_reads             3687633                       # number of times the CC registers were read
system.cpu3.num_cc_register_writes            2000586                       # number of times the CC registers were written
system.cpu3.num_mem_refs                      1320882                       # number of memory refs
system.cpu3.num_load_insts                     855547                       # Number of load instructions
system.cpu3.num_store_insts                    465335                       # Number of store instructions
system.cpu3.num_idle_cycles              2490635113.566996                       # Number of idle cycles
system.cpu3.num_busy_cycles              14697361.433004                       # Number of busy cycles
system.cpu3.not_idle_fraction                0.005866                       # Percentage of non-idle cycles
system.cpu3.idle_fraction                    0.994134                       # Percentage of idle cycles
system.cpu3.Branches                           672345                       # Number of branches fetched
system.cpu3.op_class::No_OpClass                39397      0.67%      0.67% # Class of executed instruction
system.cpu3.op_class::IntAlu                  4468289     76.41%     77.09% # Class of executed instruction
system.cpu3.op_class::IntMult                    4769      0.08%     77.17% # Class of executed instruction
system.cpu3.op_class::IntDiv                    12900      0.22%     77.39% # Class of executed instruction
system.cpu3.op_class::FloatAdd                   1376      0.02%     77.41% # Class of executed instruction
system.cpu3.op_class::FloatCmp                      0      0.00%     77.41% # Class of executed instruction
system.cpu3.op_class::FloatCvt                      0      0.00%     77.41% # Class of executed instruction
system.cpu3.op_class::FloatMult                     0      0.00%     77.41% # Class of executed instruction
system.cpu3.op_class::FloatDiv                      0      0.00%     77.41% # Class of executed instruction
system.cpu3.op_class::FloatSqrt                     0      0.00%     77.41% # Class of executed instruction
system.cpu3.op_class::SimdAdd                       0      0.00%     77.41% # Class of executed instruction
system.cpu3.op_class::SimdAddAcc                    0      0.00%     77.41% # Class of executed instruction
system.cpu3.op_class::SimdAlu                       0      0.00%     77.41% # Class of executed instruction
system.cpu3.op_class::SimdCmp                       0      0.00%     77.41% # Class of executed instruction
system.cpu3.op_class::SimdCvt                       0      0.00%     77.41% # Class of executed instruction
system.cpu3.op_class::SimdMisc                      0      0.00%     77.41% # Class of executed instruction
system.cpu3.op_class::SimdMult                      0      0.00%     77.41% # Class of executed instruction
system.cpu3.op_class::SimdMultAcc                   0      0.00%     77.41% # Class of executed instruction
system.cpu3.op_class::SimdShift                     0      0.00%     77.41% # Class of executed instruction
system.cpu3.op_class::SimdShiftAcc                  0      0.00%     77.41% # Class of executed instruction
system.cpu3.op_class::SimdSqrt                      0      0.00%     77.41% # Class of executed instruction
system.cpu3.op_class::SimdFloatAdd                  0      0.00%     77.41% # Class of executed instruction
system.cpu3.op_class::SimdFloatAlu                  0      0.00%     77.41% # Class of executed instruction
system.cpu3.op_class::SimdFloatCmp                  0      0.00%     77.41% # Class of executed instruction
system.cpu3.op_class::SimdFloatCvt                  0      0.00%     77.41% # Class of executed instruction
system.cpu3.op_class::SimdFloatDiv                  0      0.00%     77.41% # Class of executed instruction
system.cpu3.op_class::SimdFloatMisc                 0      0.00%     77.41% # Class of executed instruction
system.cpu3.op_class::SimdFloatMult                 0      0.00%     77.41% # Class of executed instruction
system.cpu3.op_class::SimdFloatMultAcc              0      0.00%     77.41% # Class of executed instruction
system.cpu3.op_class::SimdFloatSqrt                 0      0.00%     77.41% # Class of executed instruction
system.cpu3.op_class::MemRead                  855547     14.63%     92.04% # Class of executed instruction
system.cpu3.op_class::MemWrite                 465335      7.96%    100.00% # Class of executed instruction
system.cpu3.op_class::IprAccess                     0      0.00%    100.00% # Class of executed instruction
system.cpu3.op_class::InstPrefetch                  0      0.00%    100.00% # Class of executed instruction
system.cpu3.op_class::total                   5847613                       # Class of executed instruction
system.iobus.trans_dist::ReadReq                  708                       # Transaction distribution
system.iobus.trans_dist::ReadResp                 708                       # Transaction distribution
system.iobus.trans_dist::WriteReq                1518                       # Transaction distribution
system.iobus.trans_dist::WriteResp               1518                       # Transaction distribution
system.iobus.trans_dist::MessageReq                11                       # Transaction distribution
system.iobus.trans_dist::MessageResp               11                       # Transaction distribution
system.iobus.pkt_count_system.pc.south_bridge.io_apic.int_master::system.ruby.l0_cntrl0.sequencer.pio-slave-port            2                       # Packet count per connected master and slave (bytes)
system.iobus.pkt_count_system.pc.south_bridge.io_apic.int_master::system.ruby.l0_cntrl1.sequencer.pio-slave-port            2                       # Packet count per connected master and slave (bytes)
system.iobus.pkt_count_system.pc.south_bridge.io_apic.int_master::system.ruby.l0_cntrl2.sequencer.pio-slave-port            2                       # Packet count per connected master and slave (bytes)
system.iobus.pkt_count_system.pc.south_bridge.io_apic.int_master::total            6                       # Packet count per connected master and slave (bytes)
system.iobus.pkt_count_system.ruby.l0_cntrl0.sequencer.mem-master-port::system.pc.south_bridge.io_apic.pio            6                       # Packet count per connected master and slave (bytes)
system.iobus.pkt_count_system.ruby.l0_cntrl0.sequencer.mem-master-port::system.pc.com_1.pio         1854                       # Packet count per connected master and slave (bytes)
system.iobus.pkt_count_system.ruby.l0_cntrl0.sequencer.mem-master-port::system.ruby.l0_cntrl0.sequencer.pio-slave-port          638                       # Packet count per connected master and slave (bytes)
system.iobus.pkt_count_system.ruby.l0_cntrl0.sequencer.mem-master-port::system.ruby.l0_cntrl1.sequencer.pio-slave-port            2                       # Packet count per connected master and slave (bytes)
system.iobus.pkt_count_system.ruby.l0_cntrl0.sequencer.mem-master-port::total         2500                       # Packet count per connected master and slave (bytes)
system.iobus.pkt_count_system.ruby.l0_cntrl1.sequencer.mem-master-port::system.pc.south_bridge.io_apic.pio            8                       # Packet count per connected master and slave (bytes)
system.iobus.pkt_count_system.ruby.l0_cntrl1.sequencer.mem-master-port::system.ruby.l0_cntrl0.sequencer.pio-slave-port            2                       # Packet count per connected master and slave (bytes)
system.iobus.pkt_count_system.ruby.l0_cntrl1.sequencer.mem-master-port::system.ruby.l0_cntrl1.sequencer.pio-slave-port          650                       # Packet count per connected master and slave (bytes)
system.iobus.pkt_count_system.ruby.l0_cntrl1.sequencer.mem-master-port::system.ruby.l0_cntrl2.sequencer.pio-slave-port            4                       # Packet count per connected master and slave (bytes)
system.iobus.pkt_count_system.ruby.l0_cntrl1.sequencer.mem-master-port::total          664                       # Packet count per connected master and slave (bytes)
system.iobus.pkt_count_system.ruby.l0_cntrl2.sequencer.mem-master-port::system.pc.south_bridge.io_apic.pio            8                       # Packet count per connected master and slave (bytes)
system.iobus.pkt_count_system.ruby.l0_cntrl2.sequencer.mem-master-port::system.pc.com_1.pio            2                       # Packet count per connected master and slave (bytes)
system.iobus.pkt_count_system.ruby.l0_cntrl2.sequencer.mem-master-port::system.ruby.l0_cntrl2.sequencer.pio-slave-port          640                       # Packet count per connected master and slave (bytes)
system.iobus.pkt_count_system.ruby.l0_cntrl2.sequencer.mem-master-port::system.ruby.l0_cntrl3.sequencer.pio-slave-port            2                       # Packet count per connected master and slave (bytes)
system.iobus.pkt_count_system.ruby.l0_cntrl2.sequencer.mem-master-port::total          652                       # Packet count per connected master and slave (bytes)
system.iobus.pkt_count_system.ruby.l0_cntrl3.sequencer.mem-master-port::system.ruby.l0_cntrl0.sequencer.pio-slave-port            2                       # Packet count per connected master and slave (bytes)
system.iobus.pkt_count_system.ruby.l0_cntrl3.sequencer.mem-master-port::system.ruby.l0_cntrl1.sequencer.pio-slave-port            2                       # Packet count per connected master and slave (bytes)
system.iobus.pkt_count_system.ruby.l0_cntrl3.sequencer.mem-master-port::system.ruby.l0_cntrl2.sequencer.pio-slave-port            2                       # Packet count per connected master and slave (bytes)
system.iobus.pkt_count_system.ruby.l0_cntrl3.sequencer.mem-master-port::system.ruby.l0_cntrl3.sequencer.pio-slave-port          646                       # Packet count per connected master and slave (bytes)
system.iobus.pkt_count_system.ruby.l0_cntrl3.sequencer.mem-master-port::total          652                       # Packet count per connected master and slave (bytes)
system.iobus.pkt_count::total                    4474                       # Packet count per connected master and slave (bytes)
system.iobus.pkt_size_system.pc.south_bridge.io_apic.int_master::system.ruby.l0_cntrl0.sequencer.pio-slave-port            4                       # Cumulative packet size per connected master and slave (bytes)
system.iobus.pkt_size_system.pc.south_bridge.io_apic.int_master::system.ruby.l0_cntrl1.sequencer.pio-slave-port            4                       # Cumulative packet size per connected master and slave (bytes)
system.iobus.pkt_size_system.pc.south_bridge.io_apic.int_master::system.ruby.l0_cntrl2.sequencer.pio-slave-port            4                       # Cumulative packet size per connected master and slave (bytes)
system.iobus.pkt_size_system.pc.south_bridge.io_apic.int_master::total           12                       # Cumulative packet size per connected master and slave (bytes)
system.iobus.pkt_size_system.ruby.l0_cntrl0.sequencer.mem-master-port::system.pc.south_bridge.io_apic.pio           12                       # Cumulative packet size per connected master and slave (bytes)
system.iobus.pkt_size_system.ruby.l0_cntrl0.sequencer.mem-master-port::system.pc.com_1.pio          927                       # Cumulative packet size per connected master and slave (bytes)
system.iobus.pkt_size_system.ruby.l0_cntrl0.sequencer.mem-master-port::system.ruby.l0_cntrl0.sequencer.pio-slave-port         1276                       # Cumulative packet size per connected master and slave (bytes)
system.iobus.pkt_size_system.ruby.l0_cntrl0.sequencer.mem-master-port::system.ruby.l0_cntrl1.sequencer.pio-slave-port            4                       # Cumulative packet size per connected master and slave (bytes)
system.iobus.pkt_size_system.ruby.l0_cntrl0.sequencer.mem-master-port::total         2219                       # Cumulative packet size per connected master and slave (bytes)
system.iobus.pkt_size_system.ruby.l0_cntrl1.sequencer.mem-master-port::system.pc.south_bridge.io_apic.pio           16                       # Cumulative packet size per connected master and slave (bytes)
system.iobus.pkt_size_system.ruby.l0_cntrl1.sequencer.mem-master-port::system.ruby.l0_cntrl0.sequencer.pio-slave-port            4                       # Cumulative packet size per connected master and slave (bytes)
system.iobus.pkt_size_system.ruby.l0_cntrl1.sequencer.mem-master-port::system.ruby.l0_cntrl1.sequencer.pio-slave-port         1300                       # Cumulative packet size per connected master and slave (bytes)
system.iobus.pkt_size_system.ruby.l0_cntrl1.sequencer.mem-master-port::system.ruby.l0_cntrl2.sequencer.pio-slave-port            8                       # Cumulative packet size per connected master and slave (bytes)
system.iobus.pkt_size_system.ruby.l0_cntrl1.sequencer.mem-master-port::total         1328                       # Cumulative packet size per connected master and slave (bytes)
system.iobus.pkt_size_system.ruby.l0_cntrl2.sequencer.mem-master-port::system.pc.south_bridge.io_apic.pio           16                       # Cumulative packet size per connected master and slave (bytes)
system.iobus.pkt_size_system.ruby.l0_cntrl2.sequencer.mem-master-port::system.pc.com_1.pio            1                       # Cumulative packet size per connected master and slave (bytes)
system.iobus.pkt_size_system.ruby.l0_cntrl2.sequencer.mem-master-port::system.ruby.l0_cntrl2.sequencer.pio-slave-port         1280                       # Cumulative packet size per connected master and slave (bytes)
system.iobus.pkt_size_system.ruby.l0_cntrl2.sequencer.mem-master-port::system.ruby.l0_cntrl3.sequencer.pio-slave-port            4                       # Cumulative packet size per connected master and slave (bytes)
system.iobus.pkt_size_system.ruby.l0_cntrl2.sequencer.mem-master-port::total         1301                       # Cumulative packet size per connected master and slave (bytes)
system.iobus.pkt_size_system.ruby.l0_cntrl3.sequencer.mem-master-port::system.ruby.l0_cntrl0.sequencer.pio-slave-port            4                       # Cumulative packet size per connected master and slave (bytes)
system.iobus.pkt_size_system.ruby.l0_cntrl3.sequencer.mem-master-port::system.ruby.l0_cntrl1.sequencer.pio-slave-port            4                       # Cumulative packet size per connected master and slave (bytes)
system.iobus.pkt_size_system.ruby.l0_cntrl3.sequencer.mem-master-port::system.ruby.l0_cntrl2.sequencer.pio-slave-port            4                       # Cumulative packet size per connected master and slave (bytes)
system.iobus.pkt_size_system.ruby.l0_cntrl3.sequencer.mem-master-port::system.ruby.l0_cntrl3.sequencer.pio-slave-port         1292                       # Cumulative packet size per connected master and slave (bytes)
system.iobus.pkt_size_system.ruby.l0_cntrl3.sequencer.mem-master-port::total         1304                       # Cumulative packet size per connected master and slave (bytes)
system.iobus.pkt_size::total                     6164                       # Cumulative packet size per connected master and slave (bytes)
system.iobus.reqLayer8.occupancy                20997                       # Layer occupancy (ticks)
system.iobus.reqLayer8.utilization                0.0                       # Layer utilization (%)
system.iobus.reqLayer12.occupancy             1212000                       # Layer occupancy (ticks)
system.iobus.reqLayer12.utilization               0.0                       # Layer utilization (%)
system.iobus.reqLayer17.occupancy              745499                       # Layer occupancy (ticks)
system.iobus.reqLayer17.utilization               0.0                       # Layer utilization (%)
system.iobus.reqLayer18.occupancy              837784                       # Layer occupancy (ticks)
system.iobus.reqLayer18.utilization               0.0                       # Layer utilization (%)
system.iobus.reqLayer19.occupancy              743000                       # Layer occupancy (ticks)
system.iobus.reqLayer19.utilization               0.0                       # Layer utilization (%)
system.iobus.reqLayer20.occupancy              744498                       # Layer occupancy (ticks)
system.iobus.reqLayer20.utilization               0.0                       # Layer utilization (%)
system.iobus.respLayer0.occupancy                4000                       # Layer occupancy (ticks)
system.iobus.respLayer0.utilization               0.0                       # Layer utilization (%)
system.iobus.respLayer2.occupancy             2106500                       # Layer occupancy (ticks)
system.iobus.respLayer2.utilization               0.0                       # Layer utilization (%)
system.iobus.respLayer4.occupancy              500000                       # Layer occupancy (ticks)
system.iobus.respLayer4.utilization               0.0                       # Layer utilization (%)
system.iobus.respLayer6.occupancy              489500                       # Layer occupancy (ticks)
system.iobus.respLayer6.utilization               0.0                       # Layer utilization (%)
system.iobus.respLayer8.occupancy              490500                       # Layer occupancy (ticks)
system.iobus.respLayer8.utilization               0.0                       # Layer utilization (%)
system.pc.south_bridge.ide.disks.dma_read_full_pages            0                       # Number of full page size DMA reads (not PRD).
system.pc.south_bridge.ide.disks.dma_read_bytes            0                       # Number of bytes transfered via DMA reads (not PRD).
system.pc.south_bridge.ide.disks.dma_read_txs            0                       # Number of DMA read transactions (not PRD).
system.pc.south_bridge.ide.disks.dma_write_full_pages            0                       # Number of full page size DMA writes.
system.pc.south_bridge.ide.disks.dma_write_bytes            0                       # Number of bytes transfered via DMA writes.
system.pc.south_bridge.ide.disks.dma_write_txs            0                       # Number of DMA write transactions.
system.ruby.clk_domain.clock                      500                       # Clock period in ticks
system.ruby.delayHist::bucket_size                  4                       # delay histogram for all message
system.ruby.delayHist::max_bucket                  39                       # delay histogram for all message
system.ruby.delayHist::samples               76845268                       # delay histogram for all message
system.ruby.delayHist::mean                  0.426109                       # delay histogram for all message
system.ruby.delayHist::stdev                 1.796694                       # delay histogram for all message
system.ruby.delayHist                    |    72755145     94.68%     94.68% |        3037      0.00%     94.68% |     4085930      5.32%    100.00% |         319      0.00%    100.00% |         812      0.00%    100.00% |           6      0.00%    100.00% |          19      0.00%    100.00% |           0      0.00%    100.00% |           0      0.00%    100.00% |           0      0.00%    100.00% # delay histogram for all message
system.ruby.delayHist::total                 76845268                       # delay histogram for all message
system.ruby.outstanding_req_hist_seqr::bucket_size            1                      
system.ruby.outstanding_req_hist_seqr::max_bucket            9                      
system.ruby.outstanding_req_hist_seqr::samples    936867610                      
system.ruby.outstanding_req_hist_seqr::mean     1.000000                      
system.ruby.outstanding_req_hist_seqr::gmean     1.000000                      
system.ruby.outstanding_req_hist_seqr::stdev     0.000503                      
system.ruby.outstanding_req_hist_seqr    |           0      0.00%      0.00% |   936867373    100.00%    100.00% |         237      0.00%    100.00% |           0      0.00%    100.00% |           0      0.00%    100.00% |           0      0.00%    100.00% |           0      0.00%    100.00% |           0      0.00%    100.00% |           0      0.00%    100.00% |           0      0.00%    100.00%
system.ruby.outstanding_req_hist_seqr::total    936867610                      
system.ruby.latency_hist_seqr::bucket_size          256                      
system.ruby.latency_hist_seqr::max_bucket         2559                      
system.ruby.latency_hist_seqr::samples      936867610                      
system.ruby.latency_hist_seqr::mean          1.694594                      
system.ruby.latency_hist_seqr::gmean         1.087051                      
system.ruby.latency_hist_seqr::stdev        10.602233                      
system.ruby.latency_hist_seqr            |   936718396     99.98%     99.98% |       69516      0.01%     99.99% |       63059      0.01%    100.00% |        9580      0.00%    100.00% |        5920      0.00%    100.00% |         715      0.00%    100.00% |         390      0.00%    100.00% |          34      0.00%    100.00% |           0      0.00%    100.00% |           0      0.00%    100.00%
system.ruby.latency_hist_seqr::total        936867610                      
system.ruby.hit_latency_hist_seqr::bucket_size            1                      
system.ruby.hit_latency_hist_seqr::max_bucket            9                      
system.ruby.hit_latency_hist_seqr::samples    897585494                      
system.ruby.hit_latency_hist_seqr::mean             1                      
system.ruby.hit_latency_hist_seqr::gmean            1                      
system.ruby.hit_latency_hist_seqr        |           0      0.00%      0.00% |   897585494    100.00%    100.00% |           0      0.00%    100.00% |           0      0.00%    100.00% |           0      0.00%    100.00% |           0      0.00%    100.00% |           0      0.00%    100.00% |           0      0.00%    100.00% |           0      0.00%    100.00% |           0      0.00%    100.00%
system.ruby.hit_latency_hist_seqr::total    897585494                      
system.ruby.miss_latency_hist_seqr::bucket_size          256                      
system.ruby.miss_latency_hist_seqr::max_bucket         2559                      
system.ruby.miss_latency_hist_seqr::samples     39282116                      
system.ruby.miss_latency_hist_seqr::mean    17.565863                      
system.ruby.miss_latency_hist_seqr::gmean     7.320625                      
system.ruby.miss_latency_hist_seqr::stdev    49.172784                      
system.ruby.miss_latency_hist_seqr       |    39132902     99.62%     99.62% |       69516      0.18%     99.80% |       63059      0.16%     99.96% |        9580      0.02%     99.98% |        5920      0.02%    100.00% |         715      0.00%    100.00% |         390      0.00%    100.00% |          34      0.00%    100.00% |           0      0.00%    100.00% |           0      0.00%    100.00%
system.ruby.miss_latency_hist_seqr::total     39282116                      
system.ruby.l0_cntrl0.Dcache.demand_hits       514695                       # Number of cache demand hits
system.ruby.l0_cntrl0.Dcache.demand_misses        64138                       # Number of cache demand misses
system.ruby.l0_cntrl0.Dcache.demand_accesses       578833                       # Number of cache demand accesses
[...]
system.ruby.L1Cache_Controller.Data_Exclusive::total      4393091                      
system.ruby.L1Cache_Controller.DataS_fromL1 |        9450     37.14%     37.14% |        2789     10.96%     48.10% |        6338     24.91%     73.00% |        6870     27.00%    100.00%
system.ruby.L1Cache_Controller.DataS_fromL1::total        25447                      
system.ruby.L1Cache_Controller.Data_all_Acks |       25347      1.13%      1.13% |     2126939     94.89%     96.02% |       33057      1.47%     97.50% |       56039      2.50%    100.00%
system.ruby.L1Cache_Controller.Data_all_Acks::total      2241382                      
system.ruby.L1Cache_Controller.L0_Ack    |       24761      8.24%      8.24% |      213949     71.23%     79.47% |       31565     10.51%     89.98% |       30106     10.02%    100.00%
system.ruby.L1Cache_Controller.L0_Ack::total       300381                      
system.ruby.L1Cache_Controller.Ack       |        7056     39.63%     39.63% |        3933     22.09%     61.72% |        3018     16.95%     78.66% |        3799     21.34%    100.00%
system.ruby.L1Cache_Controller.Ack::total        17806                      
system.ruby.L1Cache_Controller.Ack_all   |        3427     28.92%     28.92% |        2647     22.34%     51.26% |        2618     22.09%     73.35% |        3158     26.65%    100.00%
system.ruby.L1Cache_Controller.Ack_all::total        11850                      
system.ruby.L1Cache_Controller.WB_Ack    |       19853      0.31%      0.31% |     6248365     97.54%     97.85% |       35969      0.56%     98.41% |      102033      1.59%    100.00%
system.ruby.L1Cache_Controller.WB_Ack::total      6406220                      
system.ruby.L1Cache_Controller.I.Load    |       44092      0.96%      0.96% |     4393952     95.40%     96.35% |       59293      1.29%     97.64% |      108635      2.36%    100.00%
system.ruby.L1Cache_Controller.I.Load::total      4605972                      
system.ruby.L1Cache_Controller.I.Store   |       11707      0.57%      0.57% |     1994296     97.02%     97.59% |       16229      0.79%     98.38% |       33233      1.62%    100.00%
system.ruby.L1Cache_Controller.I.Store::total      2055465                      
system.ruby.L1Cache_Controller.I.Inv     |        2345     16.34%     16.34% |        6481     45.16%     61.50% |        2023     14.10%     75.59% |        3503     24.41%    100.00%
system.ruby.L1Cache_Controller.I.Inv::total        14352                      
system.ruby.L1Cache_Controller.S.Load    |      114711     12.91%     12.91% |      421874     47.47%     60.38% |      118489     13.33%     73.72% |      233566     26.28%    100.00%
system.ruby.L1Cache_Controller.S.Load::total       888640                      
system.ruby.L1Cache_Controller.S.Store   |        2357     26.45%     26.45% |        1965     22.05%     48.51% |        1983     22.26%     70.76% |        2605     29.24%    100.00%
system.ruby.L1Cache_Controller.S.Store::total         8910                      
system.ruby.L1Cache_Controller.S.L0_Invalidate_Own |       12987      7.19%      7.19% |      132827     73.51%     80.70% |       16755      9.27%     89.97% |       18124     10.03%    100.00%
system.ruby.L1Cache_Controller.S.L0_Invalidate_Own::total       180693                      
system.ruby.L1Cache_Controller.S.L0_Invalidate_Else |        9948     31.04%     31.04% |        1424      4.44%     35.48% |       10776     33.62%     69.10% |        9905     30.90%    100.00%
system.ruby.L1Cache_Controller.S.L0_Invalidate_Else::total        32053                      
system.ruby.L1Cache_Controller.SS.Load   |        2037     22.19%     22.19% |         452      4.92%     27.12% |        5600     61.01%     88.13% |        1090     11.87%    100.00%
system.ruby.L1Cache_Controller.SS.Load::total         9179                      
system.ruby.L1Cache_Controller.SS.Store  |         958     67.32%     67.32% |          25      1.76%     69.08% |         103      7.24%     76.32% |         337     23.68%    100.00%
system.ruby.L1Cache_Controller.SS.Store::total         1423                      
system.ruby.L1Cache_Controller.SS.Inv    |       11750     28.37%     28.37% |        2999      7.24%     35.62% |       14060     33.95%     69.57% |       12601     30.43%    100.00%
system.ruby.L1Cache_Controller.SS.Inv::total        41410                      
system.ruby.L1Cache_Controller.SS.L1_Replacement |       13709      7.35%      7.35% |      135556     72.69%     80.04% |       17934      9.62%     89.65% |       19295     10.35%    100.00%
system.ruby.L1Cache_Controller.SS.L1_Replacement::total       186494                      
system.ruby.L1Cache_Controller.E.WriteBack |       20004      0.46%      0.46% |     4197757     97.00%     97.46% |       32476      0.75%     98.21% |       77247      1.79%    100.00%
system.ruby.L1Cache_Controller.E.WriteBack::total      4327484                      
system.ruby.L1Cache_Controller.E.L0_Invalidate_Own |          37      0.06%      0.06% |       59995     98.85%     98.91% |         127      0.21%     99.12% |         535      0.88%    100.00%
system.ruby.L1Cache_Controller.E.L0_Invalidate_Own::total        60694                      
system.ruby.L1Cache_Controller.E.L0_Invalidate_Else |         835     16.97%     16.97% |         118      2.40%     19.37% |        2987     60.71%     80.08% |         980     19.92%    100.00%
system.ruby.L1Cache_Controller.E.L0_Invalidate_Else::total         4920                      
system.ruby.L1Cache_Controller.EE.Inv    |         448     29.09%     29.09% |           6      0.39%     29.48% |         591     38.38%     67.86% |         495     32.14%    100.00%
system.ruby.L1Cache_Controller.EE.Inv::total         1540                      
system.ruby.L1Cache_Controller.EE.L1_Replacement |          30      0.05%      0.05% |       59966     98.94%     98.99% |         105      0.17%     99.16% |         509      0.84%    100.00%
system.ruby.L1Cache_Controller.EE.L1_Replacement::total        60610                      
system.ruby.L1Cache_Controller.EE.Fwd_GETX |           0      0.00%      0.00% |           4     26.67%     26.67% |           9     60.00%     86.67% |           2     13.33%    100.00%
system.ruby.L1Cache_Controller.EE.Fwd_GETX::total           15                      
system.ruby.L1Cache_Controller.EE.Fwd_GETS |         327     11.38%     11.38% |          86      2.99%     14.37% |        2182     75.92%     90.29% |         279      9.71%    100.00%
system.ruby.L1Cache_Controller.EE.Fwd_GETS::total         2874                      
system.ruby.L1Cache_Controller.M.WriteBack |       93450      0.27%      0.27% |    34099037     98.47%     98.74% |      104124      0.30%     99.04% |      332639      0.96%    100.00%
system.ruby.L1Cache_Controller.M.WriteBack::total     34629250                      
system.ruby.L1Cache_Controller.M.L0_Invalidate_Own |         257      1.15%      1.15% |       21089     94.47%     95.62% |         418      1.87%     97.49% |         560      2.51%    100.00%
system.ruby.L1Cache_Controller.M.L0_Invalidate_Own::total        22324                      
system.ruby.L1Cache_Controller.M.L0_Invalidate_Else |        4061     33.82%     33.82% |         640      5.33%     39.16% |        3998     33.30%     72.46% |        3307     27.54%    100.00%
system.ruby.L1Cache_Controller.M.L0_Invalidate_Else::total        12006                      
system.ruby.L1Cache_Controller.MM.Load   |       61802      0.27%      0.27% |    22245000     98.53%     98.80% |       64588      0.29%     99.09% |      206075      0.91%    100.00%
system.ruby.L1Cache_Controller.MM.Load::total     22577465                      
system.ruby.L1Cache_Controller.MM.Store  |       20957      0.21%      0.21% |     9879471     98.59%     98.80% |       25639      0.26%     99.06% |       94243      0.94%    100.00%
system.ruby.L1Cache_Controller.MM.Store::total     10020310                      
system.ruby.L1Cache_Controller.MM.Inv    |        8073     41.05%     41.05% |         363      1.85%     42.90% |        5484     27.89%     70.79% |        5744     29.21%    100.00%
system.ruby.L1Cache_Controller.MM.Inv::total        19664                      
system.ruby.L1Cache_Controller.MM.L1_Replacement |       19823      0.31%      0.31% |     6188399     97.52%     97.83% |       35864      0.57%     98.40% |      101524      1.60%    100.00%
system.ruby.L1Cache_Controller.MM.L1_Replacement::total      6345610                      
system.ruby.L1Cache_Controller.MM.Fwd_GETX |        1016     18.18%     18.18% |         865     15.48%     33.66% |        1438     25.73%     59.38% |        2270     40.62%    100.00%
system.ruby.L1Cache_Controller.MM.Fwd_GETX::total         5589                      
system.ruby.L1Cache_Controller.MM.Fwd_GETS |        4908     21.74%     21.74% |        4750     21.04%     42.79% |        7829     34.68%     77.47% |        5086     22.53%    100.00%
system.ruby.L1Cache_Controller.MM.Fwd_GETS::total        22573                      
system.ruby.L1Cache_Controller.IS.Data_Exclusive |       20890      0.48%      0.48% |     4257863     96.92%     97.40% |       35595      0.81%     98.21% |       78743      1.79%    100.00%
system.ruby.L1Cache_Controller.IS.Data_Exclusive::total      4393091                      
system.ruby.L1Cache_Controller.IS.DataS_fromL1 |        9450     37.14%     37.14% |        2789     10.96%     48.10% |        6338     24.91%     73.00% |        6870     27.00%    100.00%
system.ruby.L1Cache_Controller.IS.DataS_fromL1::total        25447                      
system.ruby.L1Cache_Controller.IS.Data_all_Acks |       13752      7.34%      7.34% |      133300     71.12%     78.46% |       17360      9.26%     87.72% |       23022     12.28%    100.00%
system.ruby.L1Cache_Controller.IS.Data_all_Acks::total       187434                      
system.ruby.L1Cache_Controller.IM.Data   |         112      7.37%      7.37% |         657     43.22%     50.59% |         533     35.07%     85.66% |         218     14.34%    100.00%
system.ruby.L1Cache_Controller.IM.Data::total         1520                      
system.ruby.L1Cache_Controller.IM.Data_all_Acks |       11595      0.56%      0.56% |     1993639     97.06%     97.63% |       15697      0.76%     98.39% |       33017      1.61%    100.00%
system.ruby.L1Cache_Controller.IM.Data_all_Acks::total      2053948                      
system.ruby.L1Cache_Controller.SM.Inv    |           0      0.00%      0.00% |           0      0.00%      0.00% |           1     33.33%     33.33% |           2     66.67%    100.00%
system.ruby.L1Cache_Controller.SM.Inv::total            3                      
system.ruby.L1Cache_Controller.SM.Ack    |        7056     39.63%     39.63% |        3933     22.09%     61.72% |        3018     16.95%     78.66% |        3799     21.34%    100.00%
system.ruby.L1Cache_Controller.SM.Ack::total        17806                      
system.ruby.L1Cache_Controller.SM.Ack_all |        3427     28.92%     28.92% |        2647     22.34%     51.26% |        2618     22.09%     73.35% |        3158     26.65%    100.00%
system.ruby.L1Cache_Controller.SM.Ack_all::total        11850                      
system.ruby.L1Cache_Controller.M_I.WB_Ack |       19853      0.31%      0.31% |     6248365     97.54%     97.85% |       35969      0.56%     98.41% |      102033      1.59%    100.00%
system.ruby.L1Cache_Controller.M_I.WB_Ack::total      6406220                      
system.ruby.L1Cache_Controller.S_IL0.L0_Invalidate_Own |       12987      7.19%      7.19% |      132827     73.51%     80.70% |       16755      9.27%     89.97% |       18124     10.03%    100.00%
system.ruby.L1Cache_Controller.S_IL0.L0_Invalidate_Own::total       180693                      
system.ruby.L1Cache_Controller.S_IL0.L0_Invalidate_Else |        9948     31.04%     31.04% |        1424      4.44%     35.48% |       10776     33.62%     69.10% |        9905     30.90%    100.00%
system.ruby.L1Cache_Controller.S_IL0.L0_Invalidate_Else::total        32053                      
system.ruby.L1Cache_Controller.S_IL0.L0_Ack |       22935     10.78%     10.78% |      134251     63.10%     73.88% |       27531     12.94%     86.83% |       28029     13.17%    100.00%
system.ruby.L1Cache_Controller.S_IL0.L0_Ack::total       212746                      
system.ruby.L1Cache_Controller.E_IL0.L0_DataAck |          67     11.65%     11.65% |          51      8.87%     20.52% |         227     39.48%     60.00% |         230     40.00%    100.00%
system.ruby.L1Cache_Controller.E_IL0.L0_DataAck::total          575                      
system.ruby.L1Cache_Controller.E_IL0.L0_Invalidate_Own |          37      0.06%      0.06% |       59995     98.85%     98.91% |         127      0.21%     99.12% |         535      0.88%    100.00%
system.ruby.L1Cache_Controller.E_IL0.L0_Invalidate_Own::total        60694                      
system.ruby.L1Cache_Controller.E_IL0.L0_Invalidate_Else |         835     16.97%     16.97% |         118      2.40%     19.37% |        2987     60.71%     80.08% |         980     19.92%    100.00%
system.ruby.L1Cache_Controller.E_IL0.L0_Invalidate_Else::total         4920                      
system.ruby.L1Cache_Controller.E_IL0.L0_Ack |         805      1.24%      1.24% |       60062     92.35%     93.59% |        2887      4.44%     98.02% |        1285      1.98%    100.00%
system.ruby.L1Cache_Controller.E_IL0.L0_Ack::total        65039                      
system.ruby.L1Cache_Controller.M_IL0.L0_DataAck |        3297     28.10%     28.10% |        2093     17.84%     45.93% |        3269     27.86%     73.79% |        3075     26.21%    100.00%
system.ruby.L1Cache_Controller.M_IL0.L0_DataAck::total        11734                      
system.ruby.L1Cache_Controller.M_IL0.L0_Invalidate_Own |         257      1.15%      1.15% |       21089     94.47%     95.62% |         418      1.87%     97.49% |         560      2.51%    100.00%
system.ruby.L1Cache_Controller.M_IL0.L0_Invalidate_Own::total        22324                      
system.ruby.L1Cache_Controller.M_IL0.L0_Invalidate_Else |        4061     33.82%     33.82% |         640      5.33%     39.16% |        3998     33.30%     72.46% |        3307     27.54%    100.00%
system.ruby.L1Cache_Controller.M_IL0.L0_Invalidate_Else::total        12006                      
system.ruby.L1Cache_Controller.M_IL0.L0_Ack |        1021      4.52%      4.52% |       19636     86.90%     91.42% |        1147      5.08%     96.49% |         792      3.51%    100.00%
system.ruby.L1Cache_Controller.M_IL0.L0_Ack::total        22596                      
system.ruby.L2Cache_Controller.L1_GETS        4606208      0.00%      0.00%
system.ruby.L2Cache_Controller.L1_GETX        2055470      0.00%      0.00%
system.ruby.L2Cache_Controller.L1_UPGRADE        10333      0.00%      0.00%
system.ruby.L2Cache_Controller.L1_PUTX        6406220      0.00%      0.00%
system.ruby.L2Cache_Controller.L2_Replacement      1590618      0.00%      0.00%
system.ruby.L2Cache_Controller.L2_Replacement_clean      1105620      0.00%      0.00%
system.ruby.L2Cache_Controller.Mem_Data       2704782      0.00%      0.00%
system.ruby.L2Cache_Controller.Mem_Ack        2696241      0.00%      0.00%
system.ruby.L2Cache_Controller.WB_Data          22051      0.00%      0.00%
system.ruby.L2Cache_Controller.WB_Data_clean        23060      0.00%      0.00%
system.ruby.L2Cache_Controller.Ack              24369      0.00%      0.00%
system.ruby.L2Cache_Controller.Ack_all          13610      0.00%      0.00%
system.ruby.L2Cache_Controller.Unblock          25447      0.00%      0.00%
system.ruby.L2Cache_Controller.Exclusive_Unblock      6458889      0.00%      0.00%
system.ruby.L2Cache_Controller.MEM_Inv              6      0.00%      0.00%
system.ruby.L2Cache_Controller.NP.L1_GETS      1652879      0.00%      0.00%
system.ruby.L2Cache_Controller.NP.L1_GETX      1051903      0.00%      0.00%
system.ruby.L2Cache_Controller.SS.L1_GETS       187322      0.00%      0.00%
system.ruby.L2Cache_Controller.SS.L1_GETX         1520      0.00%      0.00%
system.ruby.L2Cache_Controller.SS.L1_UPGRADE        10330      0.00%      0.00%
system.ruby.L2Cache_Controller.SS.L2_Replacement          926      0.00%      0.00%
system.ruby.L2Cache_Controller.SS.L2_Replacement_clean        11144      0.00%      0.00%
system.ruby.L2Cache_Controller.M.L1_GETS      2740268      0.00%      0.00%
system.ruby.L2Cache_Controller.M.L1_GETX       996441      0.00%      0.00%
system.ruby.L2Cache_Controller.M.L2_Replacement      1588539      0.00%      0.00%
system.ruby.L2Cache_Controller.M.L2_Replacement_clean      1074427      0.00%      0.00%
system.ruby.L2Cache_Controller.M.MEM_Inv            1      0.00%      0.00%
system.ruby.L2Cache_Controller.MT.L1_GETS        25447      0.00%      0.00%
system.ruby.L2Cache_Controller.MT.L1_GETX         5604      0.00%      0.00%
system.ruby.L2Cache_Controller.MT.L1_PUTX      6406220      0.00%      0.00%
system.ruby.L2Cache_Controller.MT.L2_Replacement         1153      0.00%      0.00%
system.ruby.L2Cache_Controller.MT.L2_Replacement_clean        20049      0.00%      0.00%
system.ruby.L2Cache_Controller.MT.MEM_Inv            2      0.00%      0.00%
system.ruby.L2Cache_Controller.M_I.L1_GETS            1      0.00%      0.00%
system.ruby.L2Cache_Controller.M_I.Mem_Ack      2696241      0.00%      0.00%
system.ruby.L2Cache_Controller.M_I.MEM_Inv            1      0.00%      0.00%
system.ruby.L2Cache_Controller.MT_I.WB_Data          817      0.00%      0.00%
system.ruby.L2Cache_Controller.MT_I.WB_Data_clean          310      0.00%      0.00%
system.ruby.L2Cache_Controller.MT_I.Ack_all           28      0.00%      0.00%
system.ruby.L2Cache_Controller.MT_I.MEM_Inv            2      0.00%      0.00%
system.ruby.L2Cache_Controller.MCT_I.WB_Data        11333      0.00%      0.00%
system.ruby.L2Cache_Controller.MCT_I.WB_Data_clean         7204      0.00%      0.00%
system.ruby.L2Cache_Controller.MCT_I.Ack_all         1512      0.00%      0.00%
system.ruby.L2Cache_Controller.I_I.Ack          23208      0.00%      0.00%
system.ruby.L2Cache_Controller.I_I.Ack_all        11144      0.00%      0.00%
system.ruby.L2Cache_Controller.S_I.Ack           1161      0.00%      0.00%
system.ruby.L2Cache_Controller.S_I.Ack_all          926      0.00%      0.00%
system.ruby.L2Cache_Controller.ISS.L1_GETS           56      0.00%      0.00%
system.ruby.L2Cache_Controller.ISS.Mem_Data      1652823      0.00%      0.00%
system.ruby.L2Cache_Controller.IS.Mem_Data           56      0.00%      0.00%
system.ruby.L2Cache_Controller.IM.Mem_Data      1051903      0.00%      0.00%
system.ruby.L2Cache_Controller.SS_MB.L1_GETS           78      0.00%      0.00%
system.ruby.L2Cache_Controller.SS_MB.L1_UPGRADE            3      0.00%      0.00%
system.ruby.L2Cache_Controller.SS_MB.Exclusive_Unblock        11850      0.00%      0.00%
system.ruby.L2Cache_Controller.MT_MB.L1_GETS          150      0.00%      0.00%
system.ruby.L2Cache_Controller.MT_MB.L1_GETX            2      0.00%      0.00%
system.ruby.L2Cache_Controller.MT_MB.Exclusive_Unblock      6447039      0.00%      0.00%
system.ruby.L2Cache_Controller.MT_IIB.L1_GETS            7      0.00%      0.00%
system.ruby.L2Cache_Controller.MT_IIB.WB_Data         9883      0.00%      0.00%
system.ruby.L2Cache_Controller.MT_IIB.WB_Data_clean        15506      0.00%      0.00%
system.ruby.L2Cache_Controller.MT_IIB.Unblock           58      0.00%      0.00%
system.ruby.L2Cache_Controller.MT_IB.WB_Data           18      0.00%      0.00%
system.ruby.L2Cache_Controller.MT_IB.WB_Data_clean           40      0.00%      0.00%
system.ruby.L2Cache_Controller.MT_SB.Unblock        25389      0.00%      0.00%

---------- End Simulation Statistics   ----------
