
---------- Begin Simulation Statistics ----------
sim_seconds                                  2.470384                       # Number of seconds simulated
sim_ticks                                2470383916000                       # Number of ticks simulated
final_tick                               57425188999001                       # Number of ticks from beginning of simulation (restored from checkpoints and never reset)
sim_freq                                 1000000000000                       # Frequency of simulated ticks
host_inst_rate                                 156176                       # Simulator instruction rate (inst/s)
host_op_rate                                   283110                       # Simulator op (including micro ops) rate (op/s)
host_tick_rate                              293734936                       # Simulator tick rate (ticks/s)
host_mem_usage                                2199292                       # Number of bytes of host memory used
host_seconds                                  8410.25                       # Real time elapsed on the host
sim_insts                                  1313481698                       # Number of instructions simulated
sim_ops                                    2381022964                       # Number of ops (including micro ops) simulated
system.voltage_domain.voltage                       1                       # Voltage in Volts
system.clk_domain.clock                          1000                       # Clock period in ticks
system.mem_ctrls.bytes_read::ruby.dir_cntrl0    110204032                       # Number of bytes read from this memory
system.mem_ctrls.bytes_read::total          110204032                       # Number of bytes read from this memory
system.mem_ctrls.bytes_written::ruby.dir_cntrl0    108729632                       # Number of bytes written to this memory
system.mem_ctrls.bytes_written::total       108729632                       # Number of bytes written to this memory
system.mem_ctrls.num_reads::ruby.dir_cntrl0      3443876                       # Number of read requests responded to by this memory
system.mem_ctrls.num_reads::total             3443876                       # Number of read requests responded to by this memory
system.mem_ctrls.num_writes::ruby.dir_cntrl0      3397801                       # Number of write requests responded to by this memory
system.mem_ctrls.num_writes::total            3397801                       # Number of write requests responded to by this memory
system.mem_ctrls.bw_read::ruby.dir_cntrl0     44610083                       # Total read bandwidth from this memory (bytes/s)
system.mem_ctrls.bw_read::total              44610083                       # Total read bandwidth from this memory (bytes/s)
system.mem_ctrls.bw_write::ruby.dir_cntrl0     44013253                       # Write bandwidth from this memory (bytes/s)
system.mem_ctrls.bw_write::total             44013253                       # Write bandwidth from this memory (bytes/s)
system.mem_ctrls.bw_total::ruby.dir_cntrl0     88623336                       # Total bandwidth to/from this memory (bytes/s)
system.mem_ctrls.bw_total::total             88623336                       # Total bandwidth to/from this memory (bytes/s)
system.mem_ctrls.readReqs                     3443876                       # Number of read requests accepted
system.mem_ctrls.writeReqs                    3397801                       # Number of write requests accepted
system.mem_ctrls.readBursts                   3443876                       # Number of DRAM read bursts, including those serviced by the write queue
system.mem_ctrls.writeBursts                  3397801                       # Number of DRAM write bursts, including those merged in the write queue
system.mem_ctrls.bytesReadDRAM              216027968                       # Total number of bytes read from DRAM
system.mem_ctrls.bytesReadWrQ                 4380096                       # Total number of bytes read from write queue
system.mem_ctrls.bytesWritten               189053888                       # Total number of bytes written to DRAM
system.mem_ctrls.bytesReadSys               110204032                       # Total read bytes from the system interface side
system.mem_ctrls.bytesWrittenSys            108729632                       # Total written bytes from the system interface side
system.mem_ctrls.servicedByWrQ                  68439                       # Number of DRAM read bursts serviced by the write queue
system.mem_ctrls.mergedWrBursts                443839                       # Number of DRAM write bursts merged with an existing one
system.mem_ctrls.neitherReadNorWriteReqs            0                       # Number of requests that are neither read nor write
system.mem_ctrls.perBankRdBursts::0            217600                       # Per bank write bursts
system.mem_ctrls.perBankRdBursts::1            225547                       # Per bank write bursts
system.mem_ctrls.perBankRdBursts::2            200238                       # Per bank write bursts
system.mem_ctrls.perBankRdBursts::3            206438                       # Per bank write bursts
system.mem_ctrls.perBankRdBursts::4            210545                       # Per bank write bursts
system.mem_ctrls.perBankRdBursts::5            217907                       # Per bank write bursts
system.mem_ctrls.perBankRdBursts::6            213082                       # Per bank write bursts
system.mem_ctrls.perBankRdBursts::7            209792                       # Per bank write bursts
system.mem_ctrls.perBankRdBursts::8            231787                       # Per bank write bursts
system.mem_ctrls.perBankRdBursts::9            207463                       # Per bank write bursts
system.mem_ctrls.perBankRdBursts::10           195329                       # Per bank write bursts
system.mem_ctrls.perBankRdBursts::11           203432                       # Per bank write bursts
system.mem_ctrls.perBankRdBursts::12           204229                       # Per bank write bursts
system.mem_ctrls.perBankRdBursts::13           209547                       # Per bank write bursts
system.mem_ctrls.perBankRdBursts::14           210264                       # Per bank write bursts
system.mem_ctrls.perBankRdBursts::15           212237                       # Per bank write bursts
system.mem_ctrls.perBankWrBursts::0            193588                       # Per bank write bursts
system.mem_ctrls.perBankWrBursts::1            197794                       # Per bank write bursts
system.mem_ctrls.perBankWrBursts::2            174082                       # Per bank write bursts
system.mem_ctrls.perBankWrBursts::3            182314                       # Per bank write bursts
system.mem_ctrls.perBankWrBursts::4            183231                       # Per bank write bursts
system.mem_ctrls.perBankWrBursts::5            187267                       # Per bank write bursts
system.mem_ctrls.perBankWrBursts::6            183889                       # Per bank write bursts
system.mem_ctrls.perBankWrBursts::7            187837                       # Per bank write bursts
system.mem_ctrls.perBankWrBursts::8            208164                       # Per bank write bursts
system.mem_ctrls.perBankWrBursts::9            179504                       # Per bank write bursts
system.mem_ctrls.perBankWrBursts::10           170189                       # Per bank write bursts
system.mem_ctrls.perBankWrBursts::11           178131                       # Per bank write bursts
system.mem_ctrls.perBankWrBursts::12           178179                       # Per bank write bursts
system.mem_ctrls.perBankWrBursts::13           181752                       # Per bank write bursts
system.mem_ctrls.perBankWrBursts::14           182445                       # Per bank write bursts
system.mem_ctrls.perBankWrBursts::15           185601                       # Per bank write bursts
system.mem_ctrls.numRdRetry                         0                       # Number of times read queue was full causing retry
system.mem_ctrls.numWrRetry                         0                       # Number of times write queue was full causing retry
system.mem_ctrls.totGap                  2470383919000                       # Total gap between requests
system.mem_ctrls.readPktSize::0                     0                       # Read request sizes (log2)
system.mem_ctrls.readPktSize::1                     0                       # Read request sizes (log2)
system.mem_ctrls.readPktSize::2                     0                       # Read request sizes (log2)
system.mem_ctrls.readPktSize::3                     0                       # Read request sizes (log2)
system.mem_ctrls.readPktSize::4                     0                       # Read request sizes (log2)
system.mem_ctrls.readPktSize::5               3443876                       # Read request sizes (log2)
system.mem_ctrls.readPktSize::6                     0                       # Read request sizes (log2)
system.mem_ctrls.writePktSize::0                    0                       # Write request sizes (log2)
system.mem_ctrls.writePktSize::1                    0                       # Write request sizes (log2)
system.mem_ctrls.writePktSize::2                    0                       # Write request sizes (log2)
system.mem_ctrls.writePktSize::3                    0                       # Write request sizes (log2)
system.mem_ctrls.writePktSize::4                    0                       # Write request sizes (log2)
system.mem_ctrls.writePktSize::5              3397801                       # Write request sizes (log2)
system.mem_ctrls.writePktSize::6                    0                       # Write request sizes (log2)
system.mem_ctrls.rdQLenPdf::0                 3355738                       # What read queue length does an incoming req see
system.mem_ctrls.rdQLenPdf::1                   19510                       # What read queue length does an incoming req see
system.mem_ctrls.rdQLenPdf::2                     189                       # What read queue length does an incoming req see
system.mem_ctrls.rdQLenPdf::3                       0                       # What read queue length does an incoming req see
system.mem_ctrls.rdQLenPdf::4                       0                       # What read queue length does an incoming req see
system.mem_ctrls.rdQLenPdf::5                       0                       # What read queue length does an incoming req see
system.mem_ctrls.rdQLenPdf::6                       0                       # What read queue length does an incoming req see
system.mem_ctrls.rdQLenPdf::7                       0                       # What read queue length does an incoming req see
system.mem_ctrls.rdQLenPdf::8                       0                       # What read queue length does an incoming req see
system.mem_ctrls.rdQLenPdf::9                       0                       # What read queue length does an incoming req see
system.mem_ctrls.rdQLenPdf::10                      0                       # What read queue length does an incoming req see
system.mem_ctrls.rdQLenPdf::11                      0                       # What read queue length does an incoming req see
system.mem_ctrls.rdQLenPdf::12                      0                       # What read queue length does an incoming req see
system.mem_ctrls.rdQLenPdf::13                      0                       # What read queue length does an incoming req see
system.mem_ctrls.rdQLenPdf::14                      0                       # What read queue length does an incoming req see
system.mem_ctrls.rdQLenPdf::15                      0                       # What read queue length does an incoming req see
system.mem_ctrls.rdQLenPdf::16                      0                       # What read queue length does an incoming req see
system.mem_ctrls.rdQLenPdf::17                      0                       # What read queue length does an incoming req see
system.mem_ctrls.rdQLenPdf::18                      0                       # What read queue length does an incoming req see
system.mem_ctrls.rdQLenPdf::19                      0                       # What read queue length does an incoming req see
system.mem_ctrls.rdQLenPdf::20                      0                       # What read queue length does an incoming req see
system.mem_ctrls.rdQLenPdf::21                      0                       # What read queue length does an incoming req see
system.mem_ctrls.rdQLenPdf::22                      0                       # What read queue length does an incoming req see
system.mem_ctrls.rdQLenPdf::23                      0                       # What read queue length does an incoming req see
system.mem_ctrls.rdQLenPdf::24                      0                       # What read queue length does an incoming req see
system.mem_ctrls.rdQLenPdf::25                      0                       # What read queue length does an incoming req see
system.mem_ctrls.rdQLenPdf::26                      0                       # What read queue length does an incoming req see
system.mem_ctrls.rdQLenPdf::27                      0                       # What read queue length does an incoming req see
system.mem_ctrls.rdQLenPdf::28                      0                       # What read queue length does an incoming req see
system.mem_ctrls.rdQLenPdf::29                      0                       # What read queue length does an incoming req see
system.mem_ctrls.rdQLenPdf::30                      0                       # What read queue length does an incoming req see
system.mem_ctrls.rdQLenPdf::31                      0                       # What read queue length does an incoming req see
system.mem_ctrls.wrQLenPdf::0                       0                       # What write queue length does an incoming req see
system.mem_ctrls.wrQLenPdf::1                       0                       # What write queue length does an incoming req see
system.mem_ctrls.wrQLenPdf::2                       0                       # What write queue length does an incoming req see
system.mem_ctrls.wrQLenPdf::3                       0                       # What write queue length does an incoming req see
system.mem_ctrls.wrQLenPdf::4                       0                       # What write queue length does an incoming req see
system.mem_ctrls.wrQLenPdf::5                       0                       # What write queue length does an incoming req see
system.mem_ctrls.wrQLenPdf::6                       0                       # What write queue length does an incoming req see
system.mem_ctrls.wrQLenPdf::7                       0                       # What write queue length does an incoming req see
system.mem_ctrls.wrQLenPdf::8                       0                       # What write queue length does an incoming req see
system.mem_ctrls.wrQLenPdf::9                       0                       # What write queue length does an incoming req see
system.mem_ctrls.wrQLenPdf::10                      0                       # What write queue length does an incoming req see
system.mem_ctrls.wrQLenPdf::11                      0                       # What write queue length does an incoming req see
system.mem_ctrls.wrQLenPdf::12                      0                       # What write queue length does an incoming req see
system.mem_ctrls.wrQLenPdf::13                      0                       # What write queue length does an incoming req see
system.mem_ctrls.wrQLenPdf::14                      0                       # What write queue length does an incoming req see
system.mem_ctrls.wrQLenPdf::15                   8023                       # What write queue length does an incoming req see
system.mem_ctrls.wrQLenPdf::16                   9017                       # What write queue length does an incoming req see
system.mem_ctrls.wrQLenPdf::17                 180858                       # What write queue length does an incoming req see
system.mem_ctrls.wrQLenPdf::18                 183651                       # What write queue length does an incoming req see
system.mem_ctrls.wrQLenPdf::19                 184017                       # What write queue length does an incoming req see
system.mem_ctrls.wrQLenPdf::20                 183978                       # What write queue length does an incoming req see
system.mem_ctrls.wrQLenPdf::21                 184036                       # What write queue length does an incoming req see
system.mem_ctrls.wrQLenPdf::22                 184189                       # What write queue length does an incoming req see
system.mem_ctrls.wrQLenPdf::23                 184208                       # What write queue length does an incoming req see
system.mem_ctrls.wrQLenPdf::24                 184093                       # What write queue length does an incoming req see
system.mem_ctrls.wrQLenPdf::25                 183839                       # What write queue length does an incoming req see
system.mem_ctrls.wrQLenPdf::26                 183518                       # What write queue length does an incoming req see
system.mem_ctrls.wrQLenPdf::27                 183467                       # What write queue length does an incoming req see
system.mem_ctrls.wrQLenPdf::28                 183410                       # What write queue length does an incoming req see
system.mem_ctrls.wrQLenPdf::29                 183409                       # What write queue length does an incoming req see
system.mem_ctrls.wrQLenPdf::30                 183365                       # What write queue length does an incoming req see
system.mem_ctrls.wrQLenPdf::31                 183325                       # What write queue length does an incoming req see
system.mem_ctrls.wrQLenPdf::32                 183328                       # What write queue length does an incoming req see
system.mem_ctrls.wrQLenPdf::33                    136                       # What write queue length does an incoming req see
system.mem_ctrls.wrQLenPdf::34                     56                       # What write queue length does an incoming req see
system.mem_ctrls.wrQLenPdf::35                     25                       # What write queue length does an incoming req see
system.mem_ctrls.wrQLenPdf::36                      9                       # What write queue length does an incoming req see
system.mem_ctrls.wrQLenPdf::37                      3                       # What write queue length does an incoming req see
system.mem_ctrls.wrQLenPdf::38                      2                       # What write queue length does an incoming req see
system.mem_ctrls.wrQLenPdf::39                      0                       # What write queue length does an incoming req see
system.mem_ctrls.wrQLenPdf::40                      0                       # What write queue length does an incoming req see
system.mem_ctrls.wrQLenPdf::41                      0                       # What write queue length does an incoming req see
system.mem_ctrls.wrQLenPdf::42                      0                       # What write queue length does an incoming req see
system.mem_ctrls.wrQLenPdf::43                      0                       # What write queue length does an incoming req see
system.mem_ctrls.wrQLenPdf::44                      0                       # What write queue length does an incoming req see
system.mem_ctrls.wrQLenPdf::45                      0                       # What write queue length does an incoming req see
system.mem_ctrls.wrQLenPdf::46                      0                       # What write queue length does an incoming req see
system.mem_ctrls.wrQLenPdf::47                      0                       # What write queue length does an incoming req see
system.mem_ctrls.wrQLenPdf::48                      0                       # What write queue length does an incoming req see
system.mem_ctrls.wrQLenPdf::49                      0                       # What write queue length does an incoming req see
system.mem_ctrls.wrQLenPdf::50                      0                       # What write queue length does an incoming req see
system.mem_ctrls.wrQLenPdf::51                      0                       # What write queue length does an incoming req see
system.mem_ctrls.wrQLenPdf::52                      0                       # What write queue length does an incoming req see
system.mem_ctrls.wrQLenPdf::53                      0                       # What write queue length does an incoming req see
system.mem_ctrls.wrQLenPdf::54                      0                       # What write queue length does an incoming req see
system.mem_ctrls.wrQLenPdf::55                      0                       # What write queue length does an incoming req see
system.mem_ctrls.wrQLenPdf::56                      0                       # What write queue length does an incoming req see
system.mem_ctrls.wrQLenPdf::57                      0                       # What write queue length does an incoming req see
system.mem_ctrls.wrQLenPdf::58                      0                       # What write queue length does an incoming req see
system.mem_ctrls.wrQLenPdf::59                      0                       # What write queue length does an incoming req see
system.mem_ctrls.wrQLenPdf::60                      0                       # What write queue length does an incoming req see
system.mem_ctrls.wrQLenPdf::61                      0                       # What write queue length does an incoming req see
system.mem_ctrls.wrQLenPdf::62                      0                       # What write queue length does an incoming req see
system.mem_ctrls.wrQLenPdf::63                      0                       # What write queue length does an incoming req see
system.mem_ctrls.bytesPerActivate::samples      2193523                       # Bytes accessed per row activation
system.mem_ctrls.bytesPerActivate::mean    184.671719                       # Bytes accessed per row activation
system.mem_ctrls.bytesPerActivate::gmean   132.284548                       # Bytes accessed per row activation
system.mem_ctrls.bytesPerActivate::stdev   190.696566                       # Bytes accessed per row activation
system.mem_ctrls.bytesPerActivate::0-127       915958     41.76%     41.76% # Bytes accessed per row activation
system.mem_ctrls.bytesPerActivate::128-255       752690     34.31%     76.07% # Bytes accessed per row activation
system.mem_ctrls.bytesPerActivate::256-383       292467     13.33%     89.40% # Bytes accessed per row activation
system.mem_ctrls.bytesPerActivate::384-511        86091      3.92%     93.33% # Bytes accessed per row activation
system.mem_ctrls.bytesPerActivate::512-639        45798      2.09%     95.42% # Bytes accessed per row activation
system.mem_ctrls.bytesPerActivate::640-767        24087      1.10%     96.52% # Bytes accessed per row activation
system.mem_ctrls.bytesPerActivate::768-895        17617      0.80%     97.32% # Bytes accessed per row activation
system.mem_ctrls.bytesPerActivate::896-1023        12690      0.58%     97.90% # Bytes accessed per row activation
system.mem_ctrls.bytesPerActivate::1024-1151        46125      2.10%    100.00% # Bytes accessed per row activation
system.mem_ctrls.bytesPerActivate::total      2193523                       # Bytes accessed per row activation
system.mem_ctrls.rdPerTurnAround::samples       183321                       # Reads before turning the bus around for writes
system.mem_ctrls.rdPerTurnAround::mean      18.412746                       # Reads before turning the bus around for writes
system.mem_ctrls.rdPerTurnAround::stdev     12.072572                       # Reads before turning the bus around for writes
system.mem_ctrls.rdPerTurnAround::0-63         183177     99.92%     99.92% # Reads before turning the bus around for writes
system.mem_ctrls.rdPerTurnAround::64-127           46      0.03%     99.95% # Reads before turning the bus around for writes
system.mem_ctrls.rdPerTurnAround::128-191           18      0.01%     99.96% # Reads before turning the bus around for writes
system.mem_ctrls.rdPerTurnAround::192-255           17      0.01%     99.97% # Reads before turning the bus around for writes
system.mem_ctrls.rdPerTurnAround::256-319            9      0.00%     99.97% # Reads before turning the bus around for writes
system.mem_ctrls.rdPerTurnAround::320-383           12      0.01%     99.98% # Reads before turning the bus around for writes
system.mem_ctrls.rdPerTurnAround::384-447            9      0.00%     99.98% # Reads before turning the bus around for writes
system.mem_ctrls.rdPerTurnAround::448-511            7      0.00%     99.99% # Reads before turning the bus around for writes
system.mem_ctrls.rdPerTurnAround::512-575            4      0.00%     99.99% # Reads before turning the bus around for writes
system.mem_ctrls.rdPerTurnAround::576-639            2      0.00%     99.99% # Reads before turning the bus around for writes
system.mem_ctrls.rdPerTurnAround::640-703            5      0.00%     99.99% # Reads before turning the bus around for writes
system.mem_ctrls.rdPerTurnAround::704-767            4      0.00%     99.99% # Reads before turning the bus around for writes
system.mem_ctrls.rdPerTurnAround::768-831            4      0.00%    100.00% # Reads before turning the bus around for writes
system.mem_ctrls.rdPerTurnAround::832-895            2      0.00%    100.00% # Reads before turning the bus around for writes
system.mem_ctrls.rdPerTurnAround::896-959            1      0.00%    100.00% # Reads before turning the bus around for writes
system.mem_ctrls.rdPerTurnAround::1088-1151            1      0.00%    100.00% # Reads before turning the bus around for writes
system.mem_ctrls.rdPerTurnAround::1280-1343            1      0.00%    100.00% # Reads before turning the bus around for writes
system.mem_ctrls.rdPerTurnAround::1344-1407            1      0.00%    100.00% # Reads before turning the bus around for writes
system.mem_ctrls.rdPerTurnAround::1600-1663            1      0.00%    100.00% # Reads before turning the bus around for writes
system.mem_ctrls.rdPerTurnAround::total        183321                       # Reads before turning the bus around for writes
system.mem_ctrls.wrPerTurnAround::samples       183321                       # Writes before turning the bus around for reads
system.mem_ctrls.wrPerTurnAround::mean      16.113631                       # Writes before turning the bus around for reads
system.mem_ctrls.wrPerTurnAround::gmean     16.105690                       # Writes before turning the bus around for reads
system.mem_ctrls.wrPerTurnAround::stdev      0.532881                       # Writes before turning the bus around for reads
system.mem_ctrls.wrPerTurnAround::16           174470     95.17%     95.17% # Writes before turning the bus around for reads
system.mem_ctrls.wrPerTurnAround::17              402      0.22%     95.39% # Writes before turning the bus around for reads
system.mem_ctrls.wrPerTurnAround::18             5959      3.25%     98.64% # Writes before turning the bus around for reads
system.mem_ctrls.wrPerTurnAround::19             1608      0.88%     99.52% # Writes before turning the bus around for reads
system.mem_ctrls.wrPerTurnAround::20              766      0.42%     99.94% # Writes before turning the bus around for reads
system.mem_ctrls.wrPerTurnAround::21               93      0.05%     99.99% # Writes before turning the bus around for reads
system.mem_ctrls.wrPerTurnAround::22               13      0.01%     99.99% # Writes before turning the bus around for reads
system.mem_ctrls.wrPerTurnAround::23                6      0.00%    100.00% # Writes before turning the bus around for reads
system.mem_ctrls.wrPerTurnAround::24                2      0.00%    100.00% # Writes before turning the bus around for reads
system.mem_ctrls.wrPerTurnAround::27                2      0.00%    100.00% # Writes before turning the bus around for reads
system.mem_ctrls.wrPerTurnAround::total        183321                       # Writes before turning the bus around for reads
system.mem_ctrls.totQLat                  46385664857                       # Total ticks spent queuing
system.mem_ctrls.totMemAccLat            109675108607                       # Total ticks spent from burst creation until serviced by the DRAM
system.mem_ctrls.totBusLat                16877185000                       # Total ticks spent in databus transfers
system.mem_ctrls.avgQLat                     13742.12                       # Average queueing delay per DRAM burst
system.mem_ctrls.avgBusLat                    5000.00                       # Average bus latency per DRAM burst
system.mem_ctrls.avgMemAccLat                32492.12                       # Average memory access latency per DRAM burst
system.mem_ctrls.avgRdBW                        87.45                       # Average DRAM read bandwidth in MiByte/s
system.mem_ctrls.avgWrBW                        76.53                       # Average achieved write bandwidth in MiByte/s
system.mem_ctrls.avgRdBWSys                     44.61                       # Average system read bandwidth in MiByte/s
system.mem_ctrls.avgWrBWSys                     44.01                       # Average system write bandwidth in MiByte/s
system.mem_ctrls.peakBW                      12800.00                       # Theoretical peak bandwidth in MiByte/s
system.mem_ctrls.busUtil                         1.28                       # Data bus utilization in percentage
system.mem_ctrls.busUtilRead                     0.68                       # Data bus utilization in percentage for reads
system.mem_ctrls.busUtilWrite                    0.60                       # Data bus utilization in percentage for writes
system.mem_ctrls.avgRdQLen                       1.00                       # Average read queue length when enqueuing
system.mem_ctrls.avgWrQLen                      25.52                       # Average write queue length when enqueuing
system.mem_ctrls.readRowHits                  2406802                       # Number of row buffer hits during reads
system.mem_ctrls.writeRowHits                 1729078                       # Number of row buffer hits during writes
system.mem_ctrls.readRowHitRate                 71.30                       # Row buffer hit rate for reads
system.mem_ctrls.writeRowHitRate                58.53                       # Row buffer hit rate for writes
system.mem_ctrls.avgGap                     361078.71                       # Average gap between requests
system.mem_ctrls.pageHitRate                    65.34                       # Row buffer hit rate, read and write combined
system.mem_ctrls_0.actEnergy               8720754840                       # Energy for activate commands per rank (pJ)
system.mem_ctrls_0.preEnergy               4758348375                       # Energy for precharge commands per rank (pJ)
system.mem_ctrls_0.readEnergy             14082049800                       # Energy for read commands per rank (pJ)
system.mem_ctrls_0.writeEnergy            10242819360                       # Energy for write commands per rank (pJ)
system.mem_ctrls_0.refreshEnergy         162641556480                       # Energy for refresh commands per rank (pJ)
system.mem_ctrls_0.actBackEnergy         788070521340                       # Energy for active background per rank (pJ)
system.mem_ctrls_0.preBackEnergy         802773249000                       # Energy for precharge background per rank (pJ)
system.mem_ctrls_0.totalEnergy           1791289299195                       # Total energy per rank (pJ)
system.mem_ctrls_0.averagePower            719.362872                       # Core power per rank (mW)
system.mem_ctrls_0.memoryStateTime::IDLE 1329498344501                       # Time in different power states
system.mem_ctrls_0.memoryStateTime::REF   82491500000                       # Time in different power states
system.mem_ctrls_0.memoryStateTime::PRE_PDN            0                       # Time in different power states
system.mem_ctrls_0.memoryStateTime::ACT  1058391965749                       # Time in different power states
system.mem_ctrls_0.memoryStateTime::ACT_PDN            0                       # Time in different power states
system.mem_ctrls_1.actEnergy               8485903440                       # Energy for activate commands per rank (pJ)
system.mem_ctrls_1.preEnergy               4630205250                       # Energy for precharge commands per rank (pJ)
system.mem_ctrls_1.readEnergy             13756095600                       # Energy for read commands per rank (pJ)
system.mem_ctrls_1.writeEnergy             9997305120                       # Energy for write commands per rank (pJ)
system.mem_ctrls_1.refreshEnergy         162641556480                       # Energy for refresh commands per rank (pJ)
system.mem_ctrls_1.actBackEnergy         783131854950                       # Energy for active background per rank (pJ)
system.mem_ctrls_1.preBackEnergy         807105412500                       # Energy for precharge background per rank (pJ)
system.mem_ctrls_1.totalEnergy           1789748333340                       # Total energy per rank (pJ)
system.mem_ctrls_1.averagePower            718.744036                       # Core power per rank (mW)
system.mem_ctrls_1.memoryStateTime::IDLE 1336528145000                       # Time in different power states
system.mem_ctrls_1.memoryStateTime::REF   82491500000                       # Time in different power states
system.mem_ctrls_1.memoryStateTime::PRE_PDN            0                       # Time in different power states
system.mem_ctrls_1.memoryStateTime::ACT  1051362909000                       # Time in different power states
system.mem_ctrls_1.memoryStateTime::ACT_PDN            0                       # Time in different power states
system.cpu_voltage_domain.voltage                   1                       # Voltage in Volts
system.cpu_clk_domain.clock                       500                       # Clock period in ticks
system.cpu0.apic_clk_domain.clock                8000                       # Clock period in ticks
system.cpu0.numCycles                      4941989620                       # number of cpu cycles simulated
system.cpu0.numWorkItemsStarted                     0                       # number of work items this cpu started
system.cpu0.numWorkItemsCompleted                   0                       # number of work items this cpu completed
system.cpu0.kern.inst.arm                           0                       # number of arm instructions executed
system.cpu0.kern.inst.quiesce                       0                       # number of quiesce instructions executed
system.cpu0.committedInsts                    4055484                       # Number of instructions committed
system.cpu0.committedOps                      8390266                       # Number of ops (including micro ops) committed
system.cpu0.num_int_alu_accesses              8160710                       # Number of integer alu accesses
system.cpu0.num_fp_alu_accesses                   372                       # Number of float alu accesses
system.cpu0.num_func_calls                     197436                       # number of times a function call or return occured
system.cpu0.num_conditional_control_insts       645355                       # number of instructions that are conditional controls
system.cpu0.num_int_insts                     8160710                       # number of integer instructions
system.cpu0.num_fp_insts                          372                       # number of float instructions
system.cpu0.num_int_register_reads           15960436                       # number of times the integer registers were read
system.cpu0.num_int_register_writes           6724407                       # number of times the integer registers were written
system.cpu0.num_fp_register_reads                 596                       # number of times the floating registers were read
system.cpu0.num_fp_register_writes                261                       # number of times the floating registers were written
system.cpu0.num_cc_register_reads             5011032                       # number of times the CC registers were read
system.cpu0.num_cc_register_writes            3074173                       # number of times the CC registers were written
system.cpu0.num_mem_refs                      1727283                       # number of memory refs
system.cpu0.num_load_insts                    1069194                       # Number of load instructions
system.cpu0.num_store_insts                    658089                       # Number of store instructions
system.cpu0.num_idle_cycles              4904735137.741840                       # Number of idle cycles
system.cpu0.num_busy_cycles              37254482.258160                       # Number of busy cycles
system.cpu0.not_idle_fraction                0.007538                       # Percentage of non-idle cycles
system.cpu0.idle_fraction                    0.992462                       # Percentage of idle cycles
system.cpu0.Branches                           909813                       # Number of branches fetched
system.cpu0.op_class::No_OpClass                85351      1.02%      1.02% # Class of executed instruction
system.cpu0.op_class::IntAlu                  6540373     77.95%     78.97% # Class of executed instruction
system.cpu0.op_class::IntMult                    9756      0.12%     79.08% # Class of executed instruction
system.cpu0.op_class::IntDiv                    27345      0.33%     79.41% # Class of executed instruction
system.cpu0.op_class::FloatAdd                    244      0.00%     79.41% # Class of executed instruction
system.cpu0.op_class::FloatCmp                      0      0.00%     79.41% # Class of executed instruction
system.cpu0.op_class::FloatCvt                      0      0.00%     79.41% # Class of executed instruction
system.cpu0.op_class::FloatMult                     0      0.00%     79.41% # Class of executed instruction
system.cpu0.op_class::FloatDiv                      0      0.00%     79.41% # Class of executed instruction
system.cpu0.op_class::FloatSqrt                     0      0.00%     79.41% # Class of executed instruction
system.cpu0.op_class::SimdAdd                       0      0.00%     79.41% # Class of executed instruction
system.cpu0.op_class::SimdAddAcc                    0      0.00%     79.41% # Class of executed instruction
system.cpu0.op_class::SimdAlu                       0      0.00%     79.41% # Class of executed instruction
system.cpu0.op_class::SimdCmp                       0      0.00%     79.41% # Class of executed instruction
system.cpu0.op_class::SimdCvt                       0      0.00%     79.41% # Class of executed instruction
system.cpu0.op_class::SimdMisc                      0      0.00%     79.41% # Class of executed instruction
system.cpu0.op_class::SimdMult                      0      0.00%     79.41% # Class of executed instruction
system.cpu0.op_class::SimdMultAcc                   0      0.00%     79.41% # Class of executed instruction
system.cpu0.op_class::SimdShift                     0      0.00%     79.41% # Class of executed instruction
system.cpu0.op_class::SimdShiftAcc                  0      0.00%     79.41% # Class of executed instruction
system.cpu0.op_class::SimdSqrt                      0      0.00%     79.41% # Class of executed instruction
system.cpu0.op_class::SimdFloatAdd                  0      0.00%     79.41% # Class of executed instruction
system.cpu0.op_class::SimdFloatAlu                  0      0.00%     79.41% # Class of executed instruction
system.cpu0.op_class::SimdFloatCmp                  0      0.00%     79.41% # Class of executed instruction
system.cpu0.op_class::SimdFloatCvt                  0      0.00%     79.41% # Class of executed instruction
system.cpu0.op_class::SimdFloatDiv                  0      0.00%     79.41% # Class of executed instruction
system.cpu0.op_class::SimdFloatMisc                 0      0.00%     79.41% # Class of executed instruction
system.cpu0.op_class::SimdFloatMult                 0      0.00%     79.41% # Class of executed instruction
system.cpu0.op_class::SimdFloatMultAcc              0      0.00%     79.41% # Class of executed instruction
system.cpu0.op_class::SimdFloatSqrt                 0      0.00%     79.41% # Class of executed instruction
system.cpu0.op_class::MemRead                 1069194     12.74%     92.16% # Class of executed instruction
system.cpu0.op_class::MemWrite                 658089      7.84%    100.00% # Class of executed instruction
system.cpu0.op_class::IprAccess                     0      0.00%    100.00% # Class of executed instruction
system.cpu0.op_class::InstPrefetch                  0      0.00%    100.00% # Class of executed instruction
system.cpu0.op_class::total                   8390352                       # Class of executed instruction
system.cpu1.apic_clk_domain.clock                8000                       # Clock period in ticks
system.cpu1.numCycles                      4935029374                       # number of cpu cycles simulated
system.cpu1.numWorkItemsStarted                     0                       # number of work items this cpu started
system.cpu1.numWorkItemsCompleted                   0                       # number of work items this cpu completed
system.cpu1.kern.inst.arm                           0                       # number of arm instructions executed
system.cpu1.kern.inst.quiesce                       0                       # number of quiesce instructions executed
system.cpu1.committedInsts                 1297791412                       # Number of instructions committed
system.cpu1.committedOps                   2349304042                       # Number of ops (including micro ops) committed
system.cpu1.num_int_alu_accesses           1507321937                       # Number of integer alu accesses
system.cpu1.num_fp_alu_accesses            1130300518                       # Number of float alu accesses
system.cpu1.num_func_calls                     805721                       # number of times a function call or return occured
system.cpu1.num_conditional_control_insts    160952456                       # number of instructions that are conditional controls
system.cpu1.num_int_insts                  1507321937                       # number of integer instructions
system.cpu1.num_fp_insts                   1130300518                       # number of float instructions
system.cpu1.num_int_register_reads         2941257540                       # number of times the integer registers were read
system.cpu1.num_int_register_writes        1034279875                       # number of times the integer registers were written
system.cpu1.num_fp_register_reads          1382500686                       # number of times the floating registers were read
system.cpu1.num_fp_register_writes         1075410587                       # number of times the floating registers were written
system.cpu1.num_cc_register_reads           939485480                       # number of times the CC registers were read
system.cpu1.num_cc_register_writes          528284945                       # number of times the CC registers were written
system.cpu1.num_mem_refs                    388432137                       # number of memory refs
system.cpu1.num_load_insts                  350020275                       # Number of load instructions
system.cpu1.num_store_insts                  38411862                       # Number of store instructions
system.cpu1.num_idle_cycles              39517542.956239                       # Number of idle cycles
system.cpu1.num_busy_cycles              4895511831.043761                       # Number of busy cycles
system.cpu1.not_idle_fraction                0.991992                       # Percentage of non-idle cycles
system.cpu1.idle_fraction                    0.008008                       # Percentage of idle cycles
system.cpu1.Branches                        166351247                       # Number of branches fetched
system.cpu1.op_class::No_OpClass              3904708      0.17%      0.17% # Class of executed instruction
system.cpu1.op_class::IntAlu               1229268962     52.32%     52.49% # Class of executed instruction
system.cpu1.op_class::IntMult                 4269204      0.18%     52.67% # Class of executed instruction
system.cpu1.op_class::IntDiv                      924      0.00%     52.67% # Class of executed instruction
system.cpu1.op_class::FloatAdd              723444434     30.79%     83.47% # Class of executed instruction
system.cpu1.op_class::FloatCmp                      0      0.00%     83.47% # Class of executed instruction
system.cpu1.op_class::FloatCvt                      0      0.00%     83.47% # Class of executed instruction
system.cpu1.op_class::FloatMult                     0      0.00%     83.47% # Class of executed instruction
system.cpu1.op_class::FloatDiv                      0      0.00%     83.47% # Class of executed instruction
system.cpu1.op_class::FloatSqrt                     0      0.00%     83.47% # Class of executed instruction
system.cpu1.op_class::SimdAdd                       0      0.00%     83.47% # Class of executed instruction
system.cpu1.op_class::SimdAddAcc                    0      0.00%     83.47% # Class of executed instruction
system.cpu1.op_class::SimdAlu                       0      0.00%     83.47% # Class of executed instruction
system.cpu1.op_class::SimdCmp                       0      0.00%     83.47% # Class of executed instruction
system.cpu1.op_class::SimdCvt                       0      0.00%     83.47% # Class of executed instruction
system.cpu1.op_class::SimdMisc                      0      0.00%     83.47% # Class of executed instruction
system.cpu1.op_class::SimdMult                      0      0.00%     83.47% # Class of executed instruction
system.cpu1.op_class::SimdMultAcc                   0      0.00%     83.47% # Class of executed instruction
system.cpu1.op_class::SimdShift                     0      0.00%     83.47% # Class of executed instruction
system.cpu1.op_class::SimdShiftAcc                  0      0.00%     83.47% # Class of executed instruction
system.cpu1.op_class::SimdSqrt                      0      0.00%     83.47% # Class of executed instruction
system.cpu1.op_class::SimdFloatAdd                  0      0.00%     83.47% # Class of executed instruction
system.cpu1.op_class::SimdFloatAlu                  0      0.00%     83.47% # Class of executed instruction
system.cpu1.op_class::SimdFloatCmp                  0      0.00%     83.47% # Class of executed instruction
system.cpu1.op_class::SimdFloatCvt                  0      0.00%     83.47% # Class of executed instruction
system.cpu1.op_class::SimdFloatDiv                  0      0.00%     83.47% # Class of executed instruction
system.cpu1.op_class::SimdFloatMisc                 0      0.00%     83.47% # Class of executed instruction
system.cpu1.op_class::SimdFloatMult                 0      0.00%     83.47% # Class of executed instruction
system.cpu1.op_class::SimdFloatMultAcc              0      0.00%     83.47% # Class of executed instruction
system.cpu1.op_class::SimdFloatSqrt                 0      0.00%     83.47% # Class of executed instruction
system.cpu1.op_class::MemRead               350020275     14.90%     98.36% # Class of executed instruction
system.cpu1.op_class::MemWrite               38411862      1.64%    100.00% # Class of executed instruction
system.cpu1.op_class::IprAccess                     0      0.00%    100.00% # Class of executed instruction
system.cpu1.op_class::InstPrefetch                  0      0.00%    100.00% # Class of executed instruction
system.cpu1.op_class::total                2349320369                       # Class of executed instruction
system.cpu2.apic_clk_domain.clock                8000                       # Clock period in ticks
system.cpu2.numCycles                      4937216371                       # number of cpu cycles simulated
system.cpu2.numWorkItemsStarted                     0                       # number of work items this cpu started
system.cpu2.numWorkItemsCompleted                   0                       # number of work items this cpu completed
system.cpu2.kern.inst.arm                           0                       # number of arm instructions executed
system.cpu2.kern.inst.quiesce                       0                       # number of quiesce instructions executed
system.cpu2.committedInsts                    4804005                       # Number of instructions committed
system.cpu2.committedOps                      9672334                       # Number of ops (including micro ops) committed
system.cpu2.num_int_alu_accesses              9497599                       # Number of integer alu accesses
system.cpu2.num_fp_alu_accesses                  1778                       # Number of float alu accesses
system.cpu2.num_func_calls                     250026                       # number of times a function call or return occured
system.cpu2.num_conditional_control_insts       829057                       # number of instructions that are conditional controls
system.cpu2.num_int_insts                     9497599                       # number of integer instructions
system.cpu2.num_fp_insts                         1778                       # number of float instructions
system.cpu2.num_int_register_reads           18802642                       # number of times the integer registers were read
system.cpu2.num_int_register_writes           7736079                       # number of times the integer registers were written
system.cpu2.num_fp_register_reads                2988                       # number of times the floating registers were read
system.cpu2.num_fp_register_writes               1416                       # number of times the floating registers were written
system.cpu2.num_cc_register_reads             6193248                       # number of times the CC registers were read
system.cpu2.num_cc_register_writes            3291518                       # number of times the CC registers were written
system.cpu2.num_mem_refs                      2155162                       # number of memory refs
system.cpu2.num_load_insts                    1396353                       # Number of load instructions
system.cpu2.num_store_insts                    758809                       # Number of store instructions
system.cpu2.num_idle_cycles              4893486507.986545                       # Number of idle cycles
system.cpu2.num_busy_cycles              43729863.013455                       # Number of busy cycles
system.cpu2.not_idle_fraction                0.008857                       # Percentage of non-idle cycles
system.cpu2.idle_fraction                    0.991143                       # Percentage of idle cycles
system.cpu2.Branches                          1126322                       # Number of branches fetched
system.cpu2.op_class::No_OpClass                77196      0.80%      0.80% # Class of executed instruction
system.cpu2.op_class::IntAlu                  7403328     76.54%     77.34% # Class of executed instruction
system.cpu2.op_class::IntMult                    9164      0.09%     77.43% # Class of executed instruction
system.cpu2.op_class::IntDiv                    26231      0.27%     77.70% # Class of executed instruction
system.cpu2.op_class::FloatAdd                   1344      0.01%     77.72% # Class of executed instruction
system.cpu2.op_class::FloatCmp                      0      0.00%     77.72% # Class of executed instruction
system.cpu2.op_class::FloatCvt                      0      0.00%     77.72% # Class of executed instruction
system.cpu2.op_class::FloatMult                     0      0.00%     77.72% # Class of executed instruction
system.cpu2.op_class::FloatDiv                      0      0.00%     77.72% # Class of executed instruction
system.cpu2.op_class::FloatSqrt                     0      0.00%     77.72% # Class of executed instruction
system.cpu2.op_class::SimdAdd                       0      0.00%     77.72% # Class of executed instruction
system.cpu2.op_class::SimdAddAcc                    0      0.00%     77.72% # Class of executed instruction
system.cpu2.op_class::SimdAlu                       0      0.00%     77.72% # Class of executed instruction
system.cpu2.op_class::SimdCmp                       0      0.00%     77.72% # Class of executed instruction
system.cpu2.op_class::SimdCvt                       0      0.00%     77.72% # Class of executed instruction
system.cpu2.op_class::SimdMisc                      0      0.00%     77.72% # Class of executed instruction
system.cpu2.op_class::SimdMult                      0      0.00%     77.72% # Class of executed instruction
system.cpu2.op_class::SimdMultAcc                   0      0.00%     77.72% # Class of executed instruction
system.cpu2.op_class::SimdShift                     0      0.00%     77.72% # Class of executed instruction
system.cpu2.op_class::SimdShiftAcc                  0      0.00%     77.72% # Class of executed instruction
system.cpu2.op_class::SimdSqrt                      0      0.00%     77.72% # Class of executed instruction
system.cpu2.op_class::SimdFloatAdd                  0      0.00%     77.72% # Class of executed instruction
system.cpu2.op_class::SimdFloatAlu                  0      0.00%     77.72% # Class of executed instruction
system.cpu2.op_class::SimdFloatCmp                  0      0.00%     77.72% # Class of executed instruction
system.cpu2.op_class::SimdFloatCvt                  0      0.00%     77.72% # Class of executed instruction
system.cpu2.op_class::SimdFloatDiv                  0      0.00%     77.72% # Class of executed instruction
system.cpu2.op_class::SimdFloatMisc                 0      0.00%     77.72% # Class of executed instruction
system.cpu2.op_class::SimdFloatMult                 0      0.00%     77.72% # Class of executed instruction
system.cpu2.op_class::SimdFloatMultAcc              0      0.00%     77.72% # Class of executed instruction
system.cpu2.op_class::SimdFloatSqrt                 0      0.00%     77.72% # Class of executed instruction
system.cpu2.op_class::MemRead                 1396353     14.44%     92.15% # Class of executed instruction
system.cpu2.op_class::MemWrite                 758809      7.85%    100.00% # Class of executed instruction
system.cpu2.op_class::IprAccess                     0      0.00%    100.00% # Class of executed instruction
system.cpu2.op_class::InstPrefetch                  0      0.00%    100.00% # Class of executed instruction
system.cpu2.op_class::total                   9672425                       # Class of executed instruction
system.cpu3.apic_clk_domain.clock                8000                       # Clock period in ticks
system.cpu3.numCycles                      4939317962                       # number of cpu cycles simulated
system.cpu3.numWorkItemsStarted                     0                       # number of work items this cpu started
system.cpu3.numWorkItemsCompleted                   0                       # number of work items this cpu completed
system.cpu3.kern.inst.arm                           0                       # number of arm instructions executed
system.cpu3.kern.inst.quiesce                       0                       # number of quiesce instructions executed
system.cpu3.committedInsts                    2049349                       # Number of instructions committed
system.cpu3.committedOps                      4366097                       # Number of ops (including micro ops) committed
system.cpu3.num_int_alu_accesses              4275080                       # Number of integer alu accesses
system.cpu3.num_fp_alu_accesses                    39                       # Number of float alu accesses
system.cpu3.num_func_calls                     115120                       # number of times a function call or return occured
system.cpu3.num_conditional_control_insts       337389                       # number of instructions that are conditional controls
system.cpu3.num_int_insts                     4275080                       # number of integer instructions
system.cpu3.num_fp_insts                           39                       # number of float instructions
system.cpu3.num_int_register_reads            8568208                       # number of times the integer registers were read
system.cpu3.num_int_register_writes           3532544                       # number of times the integer registers were written
system.cpu3.num_fp_register_reads                  63                       # number of times the floating registers were read
system.cpu3.num_fp_register_writes                 31                       # number of times the floating registers were written
system.cpu3.num_cc_register_reads             2608202                       # number of times the CC registers were read
system.cpu3.num_cc_register_writes            1338011                       # number of times the CC registers were written
system.cpu3.num_mem_refs                       997140                       # number of memory refs
system.cpu3.num_load_insts                     620117                       # Number of load instructions
system.cpu3.num_store_insts                    377023                       # Number of store instructions
system.cpu3.num_idle_cycles              4918158064.223884                       # Number of idle cycles
system.cpu3.num_busy_cycles              21159897.776116                       # Number of busy cycles
system.cpu3.not_idle_fraction                0.004284                       # Percentage of non-idle cycles
system.cpu3.idle_fraction                    0.995716                       # Percentage of idle cycles
system.cpu3.Branches                           489652                       # Number of branches fetched
system.cpu3.op_class::No_OpClass                75705      1.73%      1.73% # Class of executed instruction
system.cpu3.op_class::IntAlu                  3257717     74.61%     76.35% # Class of executed instruction
system.cpu3.op_class::IntMult                    8250      0.19%     76.54% # Class of executed instruction
system.cpu3.op_class::IntDiv                    27278      0.62%     77.16% # Class of executed instruction
system.cpu3.op_class::FloatAdd                     30      0.00%     77.16% # Class of executed instruction
system.cpu3.op_class::FloatCmp                      0      0.00%     77.16% # Class of executed instruction
system.cpu3.op_class::FloatCvt                      0      0.00%     77.16% # Class of executed instruction
system.cpu3.op_class::FloatMult                     0      0.00%     77.16% # Class of executed instruction
system.cpu3.op_class::FloatDiv                      0      0.00%     77.16% # Class of executed instruction
system.cpu3.op_class::FloatSqrt                     0      0.00%     77.16% # Class of executed instruction
system.cpu3.op_class::SimdAdd                       0      0.00%     77.16% # Class of executed instruction
system.cpu3.op_class::SimdAddAcc                    0      0.00%     77.16% # Class of executed instruction
system.cpu3.op_class::SimdAlu                       0      0.00%     77.16% # Class of executed instruction
system.cpu3.op_class::SimdCmp                       0      0.00%     77.16% # Class of executed instruction
system.cpu3.op_class::SimdCvt                       0      0.00%     77.16% # Class of executed instruction
system.cpu3.op_class::SimdMisc                      0      0.00%     77.16% # Class of executed instruction
system.cpu3.op_class::SimdMult                      0      0.00%     77.16% # Class of executed instruction
system.cpu3.op_class::SimdMultAcc                   0      0.00%     77.16% # Class of executed instruction
system.cpu3.op_class::SimdShift                     0      0.00%     77.16% # Class of executed instruction
system.cpu3.op_class::SimdShiftAcc                  0      0.00%     77.16% # Class of executed instruction
system.cpu3.op_class::SimdSqrt                      0      0.00%     77.16% # Class of executed instruction
system.cpu3.op_class::SimdFloatAdd                  0      0.00%     77.16% # Class of executed instruction
system.cpu3.op_class::SimdFloatAlu                  0      0.00%     77.16% # Class of executed instruction
system.cpu3.op_class::SimdFloatCmp                  0      0.00%     77.16% # Class of executed instruction
system.cpu3.op_class::SimdFloatCvt                  0      0.00%     77.16% # Class of executed instruction
system.cpu3.op_class::SimdFloatDiv                  0      0.00%     77.16% # Class of executed instruction
system.cpu3.op_class::SimdFloatMisc                 0      0.00%     77.16% # Class of executed instruction
system.cpu3.op_class::SimdFloatMult                 0      0.00%     77.16% # Class of executed instruction
system.cpu3.op_class::SimdFloatMultAcc              0      0.00%     77.16% # Class of executed instruction
system.cpu3.op_class::SimdFloatSqrt                 0      0.00%     77.16% # Class of executed instruction
system.cpu3.op_class::MemRead                  620117     14.20%     91.36% # Class of executed instruction
system.cpu3.op_class::MemWrite                 377023      8.64%    100.00% # Class of executed instruction
system.cpu3.op_class::IprAccess                     0      0.00%    100.00% # Class of executed instruction
system.cpu3.op_class::InstPrefetch                  0      0.00%    100.00% # Class of executed instruction
system.cpu3.op_class::total                   4366120                       # Class of executed instruction
system.iobus.trans_dist::ReadReq                  414                       # Transaction distribution
system.iobus.trans_dist::ReadResp                 414                       # Transaction distribution
system.iobus.trans_dist::WriteReq                3198                       # Transaction distribution
system.iobus.trans_dist::WriteResp               3198                       # Transaction distribution
system.iobus.trans_dist::MessageReq                57                       # Transaction distribution
system.iobus.trans_dist::MessageResp               57                       # Transaction distribution
system.iobus.pkt_count_system.pc.south_bridge.io_apic.int_master::system.ruby.l1_cntrl0.sequencer.pio-slave-port           24                       # Packet count per connected master and slave (bytes)
system.iobus.pkt_count_system.pc.south_bridge.io_apic.int_master::system.ruby.l1_cntrl1.sequencer.pio-slave-port           22                       # Packet count per connected master and slave (bytes)
system.iobus.pkt_count_system.pc.south_bridge.io_apic.int_master::system.ruby.l1_cntrl2.sequencer.pio-slave-port           22                       # Packet count per connected master and slave (bytes)
system.iobus.pkt_count_system.pc.south_bridge.io_apic.int_master::system.ruby.l1_cntrl3.sequencer.pio-slave-port           24                       # Packet count per connected master and slave (bytes)
system.iobus.pkt_count_system.pc.south_bridge.io_apic.int_master::total           92                       # Packet count per connected master and slave (bytes)
system.iobus.pkt_count_system.ruby.l1_cntrl0.sequencer.mem-master-port::system.pc.south_bridge.ide.pio          460                       # Packet count per connected master and slave (bytes)
system.iobus.pkt_count_system.ruby.l1_cntrl0.sequencer.mem-master-port::system.pc.south_bridge.io_apic.pio           14                       # Packet count per connected master and slave (bytes)
system.iobus.pkt_count_system.ruby.l1_cntrl0.sequencer.mem-master-port::system.pc.com_1.pio          162                       # Packet count per connected master and slave (bytes)
system.iobus.pkt_count_system.ruby.l1_cntrl0.sequencer.mem-master-port::system.ruby.l1_cntrl0.sequencer.pio-slave-port         1290                       # Packet count per connected master and slave (bytes)
system.iobus.pkt_count_system.ruby.l1_cntrl0.sequencer.mem-master-port::system.ruby.l1_cntrl1.sequencer.pio-slave-port            6                       # Packet count per connected master and slave (bytes)
system.iobus.pkt_count_system.ruby.l1_cntrl0.sequencer.mem-master-port::system.ruby.l1_cntrl3.sequencer.pio-slave-port            2                       # Packet count per connected master and slave (bytes)
system.iobus.pkt_count_system.ruby.l1_cntrl0.sequencer.mem-master-port::total         1934                       # Packet count per connected master and slave (bytes)
system.iobus.pkt_count_system.ruby.l1_cntrl1.sequencer.mem-master-port::system.pc.south_bridge.ide.pio          596                       # Packet count per connected master and slave (bytes)
system.iobus.pkt_count_system.ruby.l1_cntrl1.sequencer.mem-master-port::system.pc.south_bridge.io_apic.pio            8                       # Packet count per connected master and slave (bytes)
system.iobus.pkt_count_system.ruby.l1_cntrl1.sequencer.mem-master-port::system.ruby.l1_cntrl0.sequencer.pio-slave-port            4                       # Packet count per connected master and slave (bytes)
system.iobus.pkt_count_system.ruby.l1_cntrl1.sequencer.mem-master-port::system.ruby.l1_cntrl1.sequencer.pio-slave-port         1282                       # Packet count per connected master and slave (bytes)
system.iobus.pkt_count_system.ruby.l1_cntrl1.sequencer.mem-master-port::system.ruby.l1_cntrl2.sequencer.pio-slave-port            2                       # Packet count per connected master and slave (bytes)
system.iobus.pkt_count_system.ruby.l1_cntrl1.sequencer.mem-master-port::total         1892                       # Packet count per connected master and slave (bytes)
system.iobus.pkt_count_system.ruby.l1_cntrl2.sequencer.mem-master-port::system.pc.south_bridge.ide.pio          392                       # Packet count per connected master and slave (bytes)
system.iobus.pkt_count_system.ruby.l1_cntrl2.sequencer.mem-master-port::system.pc.south_bridge.io_apic.pio            6                       # Packet count per connected master and slave (bytes)
system.iobus.pkt_count_system.ruby.l1_cntrl2.sequencer.mem-master-port::system.pc.com_1.pio           22                       # Packet count per connected master and slave (bytes)
system.iobus.pkt_count_system.ruby.l1_cntrl2.sequencer.mem-master-port::system.ruby.l1_cntrl0.sequencer.pio-slave-port            2                       # Packet count per connected master and slave (bytes)
system.iobus.pkt_count_system.ruby.l1_cntrl2.sequencer.mem-master-port::system.ruby.l1_cntrl1.sequencer.pio-slave-port            2                       # Packet count per connected master and slave (bytes)
system.iobus.pkt_count_system.ruby.l1_cntrl2.sequencer.mem-master-port::system.ruby.l1_cntrl2.sequencer.pio-slave-port         1278                       # Packet count per connected master and slave (bytes)
system.iobus.pkt_count_system.ruby.l1_cntrl2.sequencer.mem-master-port::system.ruby.l1_cntrl3.sequencer.pio-slave-port            2                       # Packet count per connected master and slave (bytes)
system.iobus.pkt_count_system.ruby.l1_cntrl2.sequencer.mem-master-port::total         1704                       # Packet count per connected master and slave (bytes)
system.iobus.pkt_count_system.ruby.l1_cntrl3.sequencer.mem-master-port::system.pc.south_bridge.ide.pio          438                       # Packet count per connected master and slave (bytes)
system.iobus.pkt_count_system.ruby.l1_cntrl3.sequencer.mem-master-port::system.pc.south_bridge.io_apic.pio            8                       # Packet count per connected master and slave (bytes)
system.iobus.pkt_count_system.ruby.l1_cntrl3.sequencer.mem-master-port::system.ruby.l1_cntrl0.sequencer.pio-slave-port            2                       # Packet count per connected master and slave (bytes)
system.iobus.pkt_count_system.ruby.l1_cntrl3.sequencer.mem-master-port::system.ruby.l1_cntrl3.sequencer.pio-slave-port         1268                       # Packet count per connected master and slave (bytes)
system.iobus.pkt_count_system.ruby.l1_cntrl3.sequencer.mem-master-port::total         1716                       # Packet count per connected master and slave (bytes)
system.iobus.pkt_count::total                    7338                       # Packet count per connected master and slave (bytes)
system.iobus.pkt_size_system.pc.south_bridge.io_apic.int_master::system.ruby.l1_cntrl0.sequencer.pio-slave-port           48                       # Cumulative packet size per connected master and slave (bytes)
system.iobus.pkt_size_system.pc.south_bridge.io_apic.int_master::system.ruby.l1_cntrl1.sequencer.pio-slave-port           44                       # Cumulative packet size per connected master and slave (bytes)
system.iobus.pkt_size_system.pc.south_bridge.io_apic.int_master::system.ruby.l1_cntrl2.sequencer.pio-slave-port           44                       # Cumulative packet size per connected master and slave (bytes)
system.iobus.pkt_size_system.pc.south_bridge.io_apic.int_master::system.ruby.l1_cntrl3.sequencer.pio-slave-port           48                       # Cumulative packet size per connected master and slave (bytes)
system.iobus.pkt_size_system.pc.south_bridge.io_apic.int_master::total          184                       # Cumulative packet size per connected master and slave (bytes)
system.iobus.pkt_size_system.ruby.l1_cntrl0.sequencer.mem-master-port::system.pc.south_bridge.ide.pio          260                       # Cumulative packet size per connected master and slave (bytes)
system.iobus.pkt_size_system.ruby.l1_cntrl0.sequencer.mem-master-port::system.pc.south_bridge.io_apic.pio           28                       # Cumulative packet size per connected master and slave (bytes)
system.iobus.pkt_size_system.ruby.l1_cntrl0.sequencer.mem-master-port::system.pc.com_1.pio           81                       # Cumulative packet size per connected master and slave (bytes)
system.iobus.pkt_size_system.ruby.l1_cntrl0.sequencer.mem-master-port::system.ruby.l1_cntrl0.sequencer.pio-slave-port         2580                       # Cumulative packet size per connected master and slave (bytes)
system.iobus.pkt_size_system.ruby.l1_cntrl0.sequencer.mem-master-port::system.ruby.l1_cntrl1.sequencer.pio-slave-port           12                       # Cumulative packet size per connected master and slave (bytes)
system.iobus.pkt_size_system.ruby.l1_cntrl0.sequencer.mem-master-port::system.ruby.l1_cntrl3.sequencer.pio-slave-port            4                       # Cumulative packet size per connected master and slave (bytes)
system.iobus.pkt_size_system.ruby.l1_cntrl0.sequencer.mem-master-port::total         2965                       # Cumulative packet size per connected master and slave (bytes)
system.iobus.pkt_size_system.ruby.l1_cntrl1.sequencer.mem-master-port::system.pc.south_bridge.ide.pio          340                       # Cumulative packet size per connected master and slave (bytes)
system.iobus.pkt_size_system.ruby.l1_cntrl1.sequencer.mem-master-port::system.pc.south_bridge.io_apic.pio           16                       # Cumulative packet size per connected master and slave (bytes)
system.iobus.pkt_size_system.ruby.l1_cntrl1.sequencer.mem-master-port::system.ruby.l1_cntrl0.sequencer.pio-slave-port            8                       # Cumulative packet size per connected master and slave (bytes)
system.iobus.pkt_size_system.ruby.l1_cntrl1.sequencer.mem-master-port::system.ruby.l1_cntrl1.sequencer.pio-slave-port         2564                       # Cumulative packet size per connected master and slave (bytes)
system.iobus.pkt_size_system.ruby.l1_cntrl1.sequencer.mem-master-port::system.ruby.l1_cntrl2.sequencer.pio-slave-port            4                       # Cumulative packet size per connected master and slave (bytes)
system.iobus.pkt_size_system.ruby.l1_cntrl1.sequencer.mem-master-port::total         2932                       # Cumulative packet size per connected master and slave (bytes)
system.iobus.pkt_size_system.ruby.l1_cntrl2.sequencer.mem-master-port::system.pc.south_bridge.ide.pio          220                       # Cumulative packet size per connected master and slave (bytes)
system.iobus.pkt_size_system.ruby.l1_cntrl2.sequencer.mem-master-port::system.pc.south_bridge.io_apic.pio           12                       # Cumulative packet size per connected master and slave (bytes)
system.iobus.pkt_size_system.ruby.l1_cntrl2.sequencer.mem-master-port::system.pc.com_1.pio           11                       # Cumulative packet size per connected master and slave (bytes)
system.iobus.pkt_size_system.ruby.l1_cntrl2.sequencer.mem-master-port::system.ruby.l1_cntrl0.sequencer.pio-slave-port            4                       # Cumulative packet size per connected master and slave (bytes)
system.iobus.pkt_size_system.ruby.l1_cntrl2.sequencer.mem-master-port::system.ruby.l1_cntrl1.sequencer.pio-slave-port            4                       # Cumulative packet size per connected master and slave (bytes)
system.iobus.pkt_size_system.ruby.l1_cntrl2.sequencer.mem-master-port::system.ruby.l1_cntrl2.sequencer.pio-slave-port         2556                       # Cumulative packet size per connected master and slave (bytes)
system.iobus.pkt_size_system.ruby.l1_cntrl2.sequencer.mem-master-port::system.ruby.l1_cntrl3.sequencer.pio-slave-port            4                       # Cumulative packet size per connected master and slave (bytes)
system.iobus.pkt_size_system.ruby.l1_cntrl2.sequencer.mem-master-port::total         2811                       # Cumulative packet size per connected master and slave (bytes)
system.iobus.pkt_size_system.ruby.l1_cntrl3.sequencer.mem-master-port::system.pc.south_bridge.ide.pio          246                       # Cumulative packet size per connected master and slave (bytes)
system.iobus.pkt_size_system.ruby.l1_cntrl3.sequencer.mem-master-port::system.pc.south_bridge.io_apic.pio           16                       # Cumulative packet size per connected master and slave (bytes)
system.iobus.pkt_size_system.ruby.l1_cntrl3.sequencer.mem-master-port::system.ruby.l1_cntrl0.sequencer.pio-slave-port            4                       # Cumulative packet size per connected master and slave (bytes)
system.iobus.pkt_size_system.ruby.l1_cntrl3.sequencer.mem-master-port::system.ruby.l1_cntrl3.sequencer.pio-slave-port         2536                       # Cumulative packet size per connected master and slave (bytes)
system.iobus.pkt_size_system.ruby.l1_cntrl3.sequencer.mem-master-port::total         2802                       # Cumulative packet size per connected master and slave (bytes)
system.iobus.pkt_size::total                    11694                       # Cumulative packet size per connected master and slave (bytes)
system.iobus.reqLayer2.occupancy              1655000                       # Layer occupancy (ticks)
system.iobus.reqLayer2.utilization                0.0                       # Layer utilization (%)
system.iobus.reqLayer8.occupancy                31996                       # Layer occupancy (ticks)
system.iobus.reqLayer8.utilization                0.0                       # Layer utilization (%)
system.iobus.reqLayer12.occupancy              119000                       # Layer occupancy (ticks)
system.iobus.reqLayer12.utilization               0.0                       # Layer utilization (%)
system.iobus.reqLayer17.occupancy             1412989                       # Layer occupancy (ticks)
system.iobus.reqLayer17.utilization               0.0                       # Layer utilization (%)
system.iobus.reqLayer18.occupancy             1748451                       # Layer occupancy (ticks)
system.iobus.reqLayer18.utilization               0.0                       # Layer utilization (%)
system.iobus.reqLayer19.occupancy             1610488                       # Layer occupancy (ticks)
system.iobus.reqLayer19.utilization               0.0                       # Layer utilization (%)
system.iobus.reqLayer20.occupancy             1604488                       # Layer occupancy (ticks)
system.iobus.reqLayer20.utilization               0.0                       # Layer utilization (%)
system.iobus.respLayer0.occupancy               77959                       # Layer occupancy (ticks)
system.iobus.respLayer0.utilization               0.0                       # Layer utilization (%)
system.iobus.respLayer2.occupancy             1436000                       # Layer occupancy (ticks)
system.iobus.respLayer2.utilization               0.0                       # Layer utilization (%)
system.iobus.respLayer4.occupancy             1368500                       # Layer occupancy (ticks)
system.iobus.respLayer4.utilization               0.0                       # Layer utilization (%)
system.iobus.respLayer6.occupancy             1255500                       # Layer occupancy (ticks)
system.iobus.respLayer6.utilization               0.0                       # Layer utilization (%)
system.iobus.respLayer8.occupancy             1258000                       # Layer occupancy (ticks)
system.iobus.respLayer8.utilization               0.0                       # Layer utilization (%)
system.pc.south_bridge.ide.disks.dma_read_full_pages          357                       # Number of full page size DMA reads (not PRD).
system.pc.south_bridge.ide.disks.dma_read_bytes      1462272                       # Number of bytes transfered via DMA reads (not PRD).
system.pc.south_bridge.ide.disks.dma_read_txs          357                       # Number of DMA read transactions (not PRD).
system.pc.south_bridge.ide.disks.dma_write_full_pages            0                       # Number of full page size DMA writes.
system.pc.south_bridge.ide.disks.dma_write_bytes            0                       # Number of bytes transfered via DMA writes.
system.pc.south_bridge.ide.disks.dma_write_txs            0                       # Number of DMA write transactions.
system.ruby.clk_domain.clock                      500                       # Clock period in ticks
system.ruby.delayHist::bucket_size                  2                       # delay histogram for all message
system.ruby.delayHist::max_bucket                  19                       # delay histogram for all message
system.ruby.delayHist::samples                8336753                       # delay histogram for all message
system.ruby.delayHist::mean                  0.002332                       # delay histogram for all message
system.ruby.delayHist::stdev                 0.097682                       # delay histogram for all message
system.ruby.delayHist                    |     8331343     99.94%     99.94% |        1550      0.02%     99.95% |        3653      0.04%    100.00% |          50      0.00%    100.00% |          71      0.00%    100.00% |          86      0.00%    100.00% |           0      0.00%    100.00% |           0      0.00%    100.00% |           0      0.00%    100.00% |           0      0.00%    100.00% # delay histogram for all message
system.ruby.delayHist::total                  8336753                       # delay histogram for all message
[...]
system.ruby.LD.Directory.miss_type_mach_latency_hist_seqr |     4755768     87.65%     87.65% |      292252      5.39%     93.03% |      262579      4.84%     97.87% |       60628      1.12%     98.99% |       41892      0.77%     99.76% |       10655      0.20%     99.96% |        1200      0.02%     99.98% |        1085      0.02%    100.00% |          89      0.00%    100.00% |           6      0.00%    100.00%
system.ruby.LD.Directory.miss_type_mach_latency_hist_seqr::total      5426154                      
system.ruby.ST.L1Cache.miss_type_mach_latency_hist_seqr::bucket_size            8                      
system.ruby.ST.L1Cache.miss_type_mach_latency_hist_seqr::max_bucket           79                      
system.ruby.ST.L1Cache.miss_type_mach_latency_hist_seqr::samples         5735                      
system.ruby.ST.L1Cache.miss_type_mach_latency_hist_seqr::mean    46.456495                      
system.ruby.ST.L1Cache.miss_type_mach_latency_hist_seqr::gmean    46.447214                      
system.ruby.ST.L1Cache.miss_type_mach_latency_hist_seqr::stdev     0.926200                      
system.ruby.ST.L1Cache.miss_type_mach_latency_hist_seqr |           0      0.00%      0.00% |           0      0.00%      0.00% |           0      0.00%      0.00% |           0      0.00%      0.00% |           0      0.00%      0.00% |        5711     99.58%     99.58% |          23      0.40%     99.98% |           1      0.02%    100.00% |           0      0.00%    100.00% |           0      0.00%    100.00%
system.ruby.ST.L1Cache.miss_type_mach_latency_hist_seqr::total         5735                      
system.ruby.ST.Directory.miss_type_mach_latency_hist_seqr::bucket_size          128                      
system.ruby.ST.Directory.miss_type_mach_latency_hist_seqr::max_bucket         1279                      
system.ruby.ST.Directory.miss_type_mach_latency_hist_seqr::samples      1584891                      
system.ruby.ST.Directory.miss_type_mach_latency_hist_seqr::mean   121.237421                      
system.ruby.ST.Directory.miss_type_mach_latency_hist_seqr::gmean   111.288802                      
system.ruby.ST.Directory.miss_type_mach_latency_hist_seqr::stdev    73.687761                      
system.ruby.ST.Directory.miss_type_mach_latency_hist_seqr |     1370277     86.46%     86.46% |      111917      7.06%     93.52% |       78122      4.93%     98.45% |        8411      0.53%     98.98% |       11978      0.76%     99.74% |        3479      0.22%     99.96% |         353      0.02%     99.98% |         322      0.02%    100.00% |          32      0.00%    100.00% |           0      0.00%    100.00%
system.ruby.ST.Directory.miss_type_mach_latency_hist_seqr::total      1584891                      
system.ruby.IFETCH.L1Cache.miss_type_mach_latency_hist_seqr::bucket_size           64                      
system.ruby.IFETCH.L1Cache.miss_type_mach_latency_hist_seqr::max_bucket          639                      
system.ruby.IFETCH.L1Cache.miss_type_mach_latency_hist_seqr::samples      1409912                      
system.ruby.IFETCH.L1Cache.miss_type_mach_latency_hist_seqr::mean    45.305576                      
system.ruby.IFETCH.L1Cache.miss_type_mach_latency_hist_seqr::gmean    45.299301                      
system.ruby.IFETCH.L1Cache.miss_type_mach_latency_hist_seqr::stdev     0.843870                      
system.ruby.IFETCH.L1Cache.miss_type_mach_latency_hist_seqr |     1409902    100.00%    100.00% |           8      0.00%    100.00% |           0      0.00%    100.00% |           1      0.00%    100.00% |           0      0.00%    100.00% |           0      0.00%    100.00% |           0      0.00%    100.00% |           1      0.00%    100.00% |           0      0.00%    100.00% |           0      0.00%    100.00%
system.ruby.IFETCH.L1Cache.miss_type_mach_latency_hist_seqr::total      1409912                      
system.ruby.IFETCH.Directory.miss_type_mach_latency_hist_seqr::bucket_size          128                      
system.ruby.IFETCH.Directory.miss_type_mach_latency_hist_seqr::max_bucket         1279                      
system.ruby.IFETCH.Directory.miss_type_mach_latency_hist_seqr::samples       410463                      
system.ruby.IFETCH.Directory.miss_type_mach_latency_hist_seqr::mean   118.589152                      
system.ruby.IFETCH.Directory.miss_type_mach_latency_hist_seqr::gmean   105.031992                      
system.ruby.IFETCH.Directory.miss_type_mach_latency_hist_seqr::stdev    74.882239                      
system.ruby.IFETCH.Directory.miss_type_mach_latency_hist_seqr |      330204     80.45%     80.45% |       58746     14.31%     94.76% |       15279      3.72%     98.48% |        2546      0.62%     99.10% |        2676      0.65%     99.75% |         840      0.20%     99.96% |          74      0.02%     99.98% |          83      0.02%    100.00% |          15      0.00%    100.00% |           0      0.00%    100.00%
system.ruby.IFETCH.Directory.miss_type_mach_latency_hist_seqr::total       410463                      
system.ruby.RMW_Read.L1Cache.miss_type_mach_latency_hist_seqr::bucket_size            8                      
system.ruby.RMW_Read.L1Cache.miss_type_mach_latency_hist_seqr::max_bucket           79                      
system.ruby.RMW_Read.L1Cache.miss_type_mach_latency_hist_seqr::samples         1533                      
system.ruby.RMW_Read.L1Cache.miss_type_mach_latency_hist_seqr::mean    45.216569                      
system.ruby.RMW_Read.L1Cache.miss_type_mach_latency_hist_seqr::gmean    45.212238                      
system.ruby.RMW_Read.L1Cache.miss_type_mach_latency_hist_seqr::stdev     0.634156                      
system.ruby.RMW_Read.L1Cache.miss_type_mach_latency_hist_seqr |           0      0.00%      0.00% |           0      0.00%      0.00% |           0      0.00%      0.00% |           0      0.00%      0.00% |           0      0.00%      0.00% |        1531     99.87%     99.87% |           2      0.13%    100.00% |           0      0.00%    100.00% |           0      0.00%    100.00% |           0      0.00%    100.00%
system.ruby.RMW_Read.L1Cache.miss_type_mach_latency_hist_seqr::total         1533                      
system.ruby.RMW_Read.Directory.miss_type_mach_latency_hist_seqr::bucket_size          128                      
system.ruby.RMW_Read.Directory.miss_type_mach_latency_hist_seqr::max_bucket         1279                      
system.ruby.RMW_Read.Directory.miss_type_mach_latency_hist_seqr::samples        15749                      
system.ruby.RMW_Read.Directory.miss_type_mach_latency_hist_seqr::mean   135.458061                      
system.ruby.RMW_Read.Directory.miss_type_mach_latency_hist_seqr::gmean   122.654829                      
system.ruby.RMW_Read.Directory.miss_type_mach_latency_hist_seqr::stdev    76.496483                      
system.ruby.RMW_Read.Directory.miss_type_mach_latency_hist_seqr |       10934     69.43%     69.43% |        3706     23.53%     92.96% |         841      5.34%     98.30% |         115      0.73%     99.03% |         115      0.73%     99.76% |          29      0.18%     99.94% |           6      0.04%     99.98% |           3      0.02%    100.00% |           0      0.00%    100.00% |           0      0.00%    100.00%
system.ruby.RMW_Read.Directory.miss_type_mach_latency_hist_seqr::total        15749                      
system.ruby.Locked_RMW_Read.L1Cache.miss_type_mach_latency_hist_seqr::bucket_size            8                      
system.ruby.Locked_RMW_Read.L1Cache.miss_type_mach_latency_hist_seqr::max_bucket           79                      
system.ruby.Locked_RMW_Read.L1Cache.miss_type_mach_latency_hist_seqr::samples         3140                      
system.ruby.Locked_RMW_Read.L1Cache.miss_type_mach_latency_hist_seqr::mean    45.619745                      
system.ruby.Locked_RMW_Read.L1Cache.miss_type_mach_latency_hist_seqr::gmean    45.609280                      
system.ruby.Locked_RMW_Read.L1Cache.miss_type_mach_latency_hist_seqr::stdev     0.991839                      
system.ruby.Locked_RMW_Read.L1Cache.miss_type_mach_latency_hist_seqr |           0      0.00%      0.00% |           0      0.00%      0.00% |           0      0.00%      0.00% |           0      0.00%      0.00% |           0      0.00%      0.00% |        3123     99.46%     99.46% |          16      0.51%     99.97% |           1      0.03%    100.00% |           0      0.00%    100.00% |           0      0.00%    100.00%
system.ruby.Locked_RMW_Read.L1Cache.miss_type_mach_latency_hist_seqr::total         3140                      
system.ruby.Locked_RMW_Read.Directory.miss_type_mach_latency_hist_seqr::bucket_size          128                      
system.ruby.Locked_RMW_Read.Directory.miss_type_mach_latency_hist_seqr::max_bucket         1279                      
system.ruby.Locked_RMW_Read.Directory.miss_type_mach_latency_hist_seqr::samples        49613                      
system.ruby.Locked_RMW_Read.Directory.miss_type_mach_latency_hist_seqr::mean   122.500796                      
system.ruby.Locked_RMW_Read.Directory.miss_type_mach_latency_hist_seqr::gmean   112.095056                      
system.ruby.Locked_RMW_Read.Directory.miss_type_mach_latency_hist_seqr::stdev    76.111193                      
system.ruby.Locked_RMW_Read.Directory.miss_type_mach_latency_hist_seqr |       41766     84.18%     84.18% |        4695      9.46%     93.65% |        2229      4.49%     98.14% |         378      0.76%     98.90% |         411      0.83%     99.73% |         103      0.21%     99.94% |           9      0.02%     99.96% |          20      0.04%    100.00% |           2      0.00%    100.00% |           0      0.00%    100.00%
system.ruby.Locked_RMW_Read.Directory.miss_type_mach_latency_hist_seqr::total        49613                      
system.ruby.Directory_Controller.GETX         4982019      0.00%      0.00%
system.ruby.Directory_Controller.PUTX         4088395      0.00%      0.00%
system.ruby.Directory_Controller.PUTX_NotOwner            5      0.00%      0.00%
system.ruby.Directory_Controller.DMA_READ        45861      0.00%      0.00%
system.ruby.Directory_Controller.DMA_WRITE          256      0.00%      0.00%
system.ruby.Directory_Controller.Memory_Data      4134526      0.00%      0.00%
system.ruby.Directory_Controller.Memory_Ack      4088651      0.00%      0.00%
system.ruby.Directory_Controller.I.GETX       4088760      0.00%      0.00%
system.ruby.Directory_Controller.I.DMA_READ        45766      0.00%      0.00%
system.ruby.Directory_Controller.I.DMA_WRITE          256      0.00%      0.00%
system.ruby.Directory_Controller.M.GETX        893088      0.00%      0.00%
system.ruby.Directory_Controller.M.PUTX       4088300      0.00%      0.00%
system.ruby.Directory_Controller.M.PUTX_NotOwner            5      0.00%      0.00%
system.ruby.Directory_Controller.M.DMA_READ           95      0.00%      0.00%
system.ruby.Directory_Controller.M_DRD.PUTX           95      0.00%      0.00%
system.ruby.Directory_Controller.M_DRDI.Memory_Ack           95      0.00%      0.00%
system.ruby.Directory_Controller.IM.GETX          170      0.00%      0.00%
system.ruby.Directory_Controller.IM.Memory_Data      4088760      0.00%      0.00%
system.ruby.Directory_Controller.MI.GETX            1      0.00%      0.00%
system.ruby.Directory_Controller.MI.Memory_Ack      4088300      0.00%      0.00%
system.ruby.Directory_Controller.ID.Memory_Data        45766      0.00%      0.00%
system.ruby.Directory_Controller.ID_W.Memory_Ack          256      0.00%      0.00%
system.ruby.DMA_Controller.ReadRequest   |       45861    100.00%    100.00% |           0      0.00%    100.00%
system.ruby.DMA_Controller.ReadRequest::total        45861                      
system.ruby.DMA_Controller.WriteRequest  |         256    100.00%    100.00% |           0      0.00%    100.00%
system.ruby.DMA_Controller.WriteRequest::total          256                      
system.ruby.DMA_Controller.Data          |       45861    100.00%    100.00% |           0      0.00%    100.00%
system.ruby.DMA_Controller.Data::total          45861                      
system.ruby.DMA_Controller.Ack           |         256    100.00%    100.00% |           0      0.00%    100.00%
system.ruby.DMA_Controller.Ack::total             256                      
system.ruby.DMA_Controller.READY.ReadRequest |       45861    100.00%    100.00% |           0      0.00%    100.00%
system.ruby.DMA_Controller.READY.ReadRequest::total        45861                      
system.ruby.DMA_Controller.READY.WriteRequest |         256    100.00%    100.00% |           0      0.00%    100.00%
system.ruby.DMA_Controller.READY.WriteRequest::total          256                      
system.ruby.DMA_Controller.BUSY_RD.Data  |       45861    100.00%    100.00% |           0      0.00%    100.00%
system.ruby.DMA_Controller.BUSY_RD.Data::total        45861                      
system.ruby.DMA_Controller.BUSY_WR.Ack   |         256    100.00%    100.00% |           0      0.00%    100.00%
system.ruby.DMA_Controller.BUSY_WR.Ack::total          256                      
system.ruby.L1Cache_Controller.Load      |     1103838      0.29%      0.29% |   360915596     93.65%     93.93% |    22507997      5.84%     99.77% |      878793      0.23%    100.00%
system.ruby.L1Cache_Controller.Load::total    385406224                      
system.ruby.L1Cache_Controller.Ifetch    |     6158290      0.31%      0.31% |  1865911769     94.35%     94.66% |   101475212      5.13%     99.79% |     4170073      0.21%    100.00%
system.ruby.L1Cache_Controller.Ifetch::total   1977715344                      
system.ruby.L1Cache_Controller.Store     |      923182      1.69%      1.69% |    40130407     73.52%     75.21% |    12885400     23.61%     98.82% |      645010      1.18%    100.00%
system.ruby.L1Cache_Controller.Store::total     54583999                      
system.ruby.L1Cache_Controller.Data      |      382317      7.67%      7.67% |     3353417     67.31%     74.99% |      903159     18.13%     93.12% |      342955      6.88%    100.00%
system.ruby.L1Cache_Controller.Data::total      4981848                      
system.ruby.L1Cache_Controller.Fwd_GETX  |      246586     27.61%     27.61% |      140737     15.76%     43.37% |      249199     27.90%     71.27% |      256566     28.73%    100.00%
system.ruby.L1Cache_Controller.Fwd_GETX::total       893088                      
system.ruby.L1Cache_Controller.Inv       |          26     13.68%     13.68% |         132     69.47%     83.16% |          12      6.32%     89.47% |          20     10.53%    100.00%
system.ruby.L1Cache_Controller.Inv::total          190                      
system.ruby.L1Cache_Controller.Replacement |      161589      3.81%      3.81% |     3281541     77.47%     81.28% |      682097     16.10%     97.39% |      110736      2.61%    100.00%
system.ruby.L1Cache_Controller.Replacement::total      4235963                      
system.ruby.L1Cache_Controller.Writeback_Ack |      136138      3.33%      3.33% |     3212436     78.57%     81.90% |      655012     16.02%     97.93% |       84809      2.07%    100.00%
system.ruby.L1Cache_Controller.Writeback_Ack::total      4088395                      
system.ruby.L1Cache_Controller.Writeback_Nack |           1     20.00%     20.00% |           3     60.00%     80.00% |           0      0.00%     80.00% |           1     20.00%    100.00%
system.ruby.L1Cache_Controller.Writeback_Nack::total            5                      
system.ruby.L1Cache_Controller.I.Load    |      105724      3.49%      3.49% |     2425796     80.15%     83.65% |      421817     13.94%     97.58% |       73160      2.42%    100.00%
system.ruby.L1Cache_Controller.I.Load::total      3026497                      
system.ruby.L1Cache_Controller.I.Ifetch  |      245531     23.60%     23.60% |      214977     20.66%     44.26% |      331150     31.82%     76.08% |      248895     23.92%    100.00%
system.ruby.L1Cache_Controller.I.Ifetch::total      1040553                      
system.ruby.L1Cache_Controller.I.Store   |       31062      3.40%      3.40% |      712644     77.90%     81.30% |      150192     16.42%     97.72% |       20900      2.28%    100.00%
system.ruby.L1Cache_Controller.I.Store::total       914798                      
system.ruby.L1Cache_Controller.I.Replacement |       25463     17.24%     17.24% |       69168     46.84%     64.09% |       27091     18.35%     82.44% |       25936     17.56%    100.00%
system.ruby.L1Cache_Controller.I.Replacement::total       147658                      
system.ruby.L1Cache_Controller.II.Writeback_Nack |           1     20.00%     20.00% |           3     60.00%     80.00% |           0      0.00%     80.00% |           1     20.00%    100.00%
system.ruby.L1Cache_Controller.II.Writeback_Nack::total            5                      
system.ruby.L1Cache_Controller.M.Load    |      998114      0.26%      0.26% |   358489800     93.75%     94.01% |    22086180      5.78%     99.79% |      805633      0.21%    100.00%
system.ruby.L1Cache_Controller.M.Load::total    382379727                      
system.ruby.L1Cache_Controller.M.Ifetch  |     5912759      0.30%      0.30% |  1865696792     94.39%     94.68% |   101144062      5.12%     99.80% |     3921178      0.20%    100.00%
system.ruby.L1Cache_Controller.M.Ifetch::total   1976674791                      
system.ruby.L1Cache_Controller.M.Store   |      892120      1.66%      1.66% |    39417763     73.45%     75.11% |    12735208     23.73%     98.84% |      624110      1.16%    100.00%
system.ruby.L1Cache_Controller.M.Store::total     53669201                      
system.ruby.L1Cache_Controller.M.Fwd_GETX |      246585     27.61%     27.61% |      140734     15.76%     43.37% |      249199     27.90%     71.27% |      256565     28.73%    100.00%
system.ruby.L1Cache_Controller.M.Fwd_GETX::total       893083                      
system.ruby.L1Cache_Controller.M.Inv     |          13     13.68%     13.68% |          66     69.47%     83.16% |           6      6.32%     89.47% |          10     10.53%    100.00%
system.ruby.L1Cache_Controller.M.Inv::total           95                      
system.ruby.L1Cache_Controller.M.Replacement |      136126      3.33%      3.33% |     3212373     78.57%     81.90% |      655006     16.02%     97.93% |       84800      2.07%    100.00%
system.ruby.L1Cache_Controller.M.Replacement::total      4088305                      
system.ruby.L1Cache_Controller.MI.Fwd_GETX |           1     20.00%     20.00% |           3     60.00%     80.00% |           0      0.00%     80.00% |           1     20.00%    100.00%
system.ruby.L1Cache_Controller.MI.Fwd_GETX::total            5                      
system.ruby.L1Cache_Controller.MI.Inv    |          13     13.68%     13.68% |          66     69.47%     83.16% |           6      6.32%     89.47% |          10     10.53%    100.00%
system.ruby.L1Cache_Controller.MI.Inv::total           95                      
system.ruby.L1Cache_Controller.MI.Writeback_Ack |      136138      3.33%      3.33% |     3212436     78.57%     81.90% |      655012     16.02%     97.93% |       84809      2.07%    100.00%
system.ruby.L1Cache_Controller.MI.Writeback_Ack::total      4088395                      
system.ruby.L1Cache_Controller.IS.Data   |      351255      8.64%      8.64% |     2640773     64.93%     73.57% |      752967     18.51%     92.08% |      322055      7.92%    100.00%
system.ruby.L1Cache_Controller.IS.Data::total      4067050                      
system.ruby.L1Cache_Controller.IM.Data   |       31062      3.40%      3.40% |      712644     77.90%     81.30% |      150192     16.42%     97.72% |       20900      2.28%    100.00%
system.ruby.L1Cache_Controller.IM.Data::total       914798                      

---------- End Simulation Statistics   ----------
