
---------- Begin Simulation Statistics ----------
sim_seconds                                  0.826060                       # Number of seconds simulated
sim_ticks                                826059979500                       # Number of ticks simulated
final_tick                               54908773059501                       # Number of ticks from beginning of simulation (restored from checkpoints and never reset)
sim_freq                                 1000000000000                       # Frequency of simulated ticks
host_inst_rate                                 103159                       # Simulator instruction rate (inst/s)
host_op_rate                                   170835                       # Simulator op (including micro ops) rate (op/s)
host_tick_rate                              304559288                       # Simulator tick rate (ticks/s)
host_mem_usage                                1871908                       # Number of bytes of host memory used
host_seconds                                  2712.31                       # Real time elapsed on the host
sim_insts                                   279800577                       # Number of instructions simulated
sim_ops                                     463358317                       # Number of ops (including micro ops) simulated
system.voltage_domain.voltage                       1                       # Voltage in Volts
system.clk_domain.clock                          1000                       # Clock period in ticks
system.mem_ctrls.bytes_read::ruby.dir_cntrl0    243587520                       # Number of bytes read from this memory
system.mem_ctrls.bytes_read::total          243587520                       # Number of bytes read from this memory
system.mem_ctrls.bytes_written::ruby.dir_cntrl0    130415296                       # Number of bytes written to this memory
system.mem_ctrls.bytes_written::total       130415296                       # Number of bytes written to this memory
system.mem_ctrls.num_reads::ruby.dir_cntrl0      3806055                       # Number of read requests responded to by this memory
system.mem_ctrls.num_reads::total             3806055                       # Number of read requests responded to by this memory
system.mem_ctrls.num_writes::ruby.dir_cntrl0      2037739                       # Number of write requests responded to by this memory
system.mem_ctrls.num_writes::total            2037739                       # Number of write requests responded to by this memory
system.mem_ctrls.bw_read::ruby.dir_cntrl0    294878733                       # Total read bandwidth from this memory (bytes/s)
system.mem_ctrls.bw_read::total             294878733                       # Total read bandwidth from this memory (bytes/s)
system.mem_ctrls.bw_write::ruby.dir_cntrl0    157876303                       # Write bandwidth from this memory (bytes/s)
system.mem_ctrls.bw_write::total            157876303                       # Write bandwidth from this memory (bytes/s)
system.mem_ctrls.bw_total::ruby.dir_cntrl0    452755036                       # Total bandwidth to/from this memory (bytes/s)
system.mem_ctrls.bw_total::total            452755036                       # Total bandwidth to/from this memory (bytes/s)
system.mem_ctrls.readReqs                     3806055                       # Number of read requests accepted
system.mem_ctrls.writeReqs                    2037739                       # Number of write requests accepted
system.mem_ctrls.readBursts                   3806055                       # Number of DRAM read bursts, including those serviced by the write queue
system.mem_ctrls.writeBursts                  2037739                       # Number of DRAM write bursts, including those merged in the write queue
system.mem_ctrls.bytesReadDRAM              243536512                       # Total number of bytes read from DRAM
system.mem_ctrls.bytesReadWrQ                   51008                       # Total number of bytes read from write queue
system.mem_ctrls.bytesWritten               130415424                       # Total number of bytes written to DRAM
system.mem_ctrls.bytesReadSys               243587520                       # Total read bytes from the system interface side
system.mem_ctrls.bytesWrittenSys            130415296                       # Total written bytes from the system interface side
system.mem_ctrls.servicedByWrQ                    797                       # Number of DRAM read bursts serviced by the write queue
system.mem_ctrls.mergedWrBursts                     2                       # Number of DRAM write bursts merged with an existing one
system.mem_ctrls.neitherReadNorWriteReqs            0                       # Number of requests that are neither read nor write
system.mem_ctrls.perBankRdBursts::0            240102                       # Per bank write bursts
system.mem_ctrls.perBankRdBursts::1            245918                       # Per bank write bursts
system.mem_ctrls.perBankRdBursts::2            226620                       # Per bank write bursts
system.mem_ctrls.perBankRdBursts::3            225834                       # Per bank write bursts
system.mem_ctrls.perBankRdBursts::4            238691                       # Per bank write bursts
system.mem_ctrls.perBankRdBursts::5            238006                       # Per bank write bursts
system.mem_ctrls.perBankRdBursts::6            251090                       # Per bank write bursts
system.mem_ctrls.perBankRdBursts::7            236663                       # Per bank write bursts
system.mem_ctrls.perBankRdBursts::8            252828                       # Per bank write bursts
system.mem_ctrls.perBankRdBursts::9            248856                       # Per bank write bursts
system.mem_ctrls.perBankRdBursts::10           241752                       # Per bank write bursts
system.mem_ctrls.perBankRdBursts::11           231089                       # Per bank write bursts
system.mem_ctrls.perBankRdBursts::12           237826                       # Per bank write bursts
system.mem_ctrls.perBankRdBursts::13           225306                       # Per bank write bursts
system.mem_ctrls.perBankRdBursts::14           231700                       # Per bank write bursts
system.mem_ctrls.perBankRdBursts::15           232977                       # Per bank write bursts
system.mem_ctrls.perBankWrBursts::0            128571                       # Per bank write bursts
system.mem_ctrls.perBankWrBursts::1            133341                       # Per bank write bursts
system.mem_ctrls.perBankWrBursts::2            123949                       # Per bank write bursts
system.mem_ctrls.perBankWrBursts::3            123652                       # Per bank write bursts
system.mem_ctrls.perBankWrBursts::4            125151                       # Per bank write bursts
system.mem_ctrls.perBankWrBursts::5            125225                       # Per bank write bursts
system.mem_ctrls.perBankWrBursts::6            132053                       # Per bank write bursts
system.mem_ctrls.perBankWrBursts::7            127214                       # Per bank write bursts
system.mem_ctrls.perBankWrBursts::8            131786                       # Per bank write bursts
system.mem_ctrls.perBankWrBursts::9            128492                       # Per bank write bursts
system.mem_ctrls.perBankWrBursts::10           127454                       # Per bank write bursts
system.mem_ctrls.perBankWrBursts::11           126626                       # Per bank write bursts
system.mem_ctrls.perBankWrBursts::12           129253                       # Per bank write bursts
system.mem_ctrls.perBankWrBursts::13           124299                       # Per bank write bursts
system.mem_ctrls.perBankWrBursts::14           125001                       # Per bank write bursts
system.mem_ctrls.perBankWrBursts::15           125674                       # Per bank write bursts
system.mem_ctrls.numRdRetry                         0                       # Number of times read queue was full causing retry
system.mem_ctrls.numWrRetry                         0                       # Number of times write queue was full causing retry
system.mem_ctrls.totGap                  826059930500                       # Total gap between requests
system.mem_ctrls.readPktSize::0                     0                       # Read request sizes (log2)
system.mem_ctrls.readPktSize::1                     0                       # Read request sizes (log2)
system.mem_ctrls.readPktSize::2                     0                       # Read request sizes (log2)
system.mem_ctrls.readPktSize::3                     0                       # Read request sizes (log2)
system.mem_ctrls.readPktSize::4                     0                       # Read request sizes (log2)
system.mem_ctrls.readPktSize::5                     0                       # Read request sizes (log2)
system.mem_ctrls.readPktSize::6               3806055                       # Read request sizes (log2)
system.mem_ctrls.writePktSize::0                    0                       # Write request sizes (log2)
system.mem_ctrls.writePktSize::1                    0                       # Write request sizes (log2)
system.mem_ctrls.writePktSize::2                    0                       # Write request sizes (log2)
system.mem_ctrls.writePktSize::3                    0                       # Write request sizes (log2)
system.mem_ctrls.writePktSize::4                    0                       # Write request sizes (log2)
system.mem_ctrls.writePktSize::5                    0                       # Write request sizes (log2)
system.mem_ctrls.writePktSize::6              2037739                       # Write request sizes (log2)
system.mem_ctrls.rdQLenPdf::0                 3768461                       # What read queue length does an incoming req see
system.mem_ctrls.rdQLenPdf::1                   36586                       # What read queue length does an incoming req see
system.mem_ctrls.rdQLenPdf::2                     211                       # What read queue length does an incoming req see
system.mem_ctrls.rdQLenPdf::3                       0                       # What read queue length does an incoming req see
system.mem_ctrls.rdQLenPdf::4                       0                       # What read queue length does an incoming req see
system.mem_ctrls.rdQLenPdf::5                       0                       # What read queue length does an incoming req see
system.mem_ctrls.rdQLenPdf::6                       0                       # What read queue length does an incoming req see
system.mem_ctrls.rdQLenPdf::7                       0                       # What read queue length does an incoming req see
system.mem_ctrls.rdQLenPdf::8                       0                       # What read queue length does an incoming req see
system.mem_ctrls.rdQLenPdf::9                       0                       # What read queue length does an incoming req see
system.mem_ctrls.rdQLenPdf::10                      0                       # What read queue length does an incoming req see
system.mem_ctrls.rdQLenPdf::11                      0                       # What read queue length does an incoming req see
system.mem_ctrls.rdQLenPdf::12                      0                       # What read queue length does an incoming req see
system.mem_ctrls.rdQLenPdf::13                      0                       # What read queue length does an incoming req see
system.mem_ctrls.rdQLenPdf::14                      0                       # What read queue length does an incoming req see
system.mem_ctrls.rdQLenPdf::15                      0                       # What read queue length does an incoming req see
system.mem_ctrls.rdQLenPdf::16                      0                       # What read queue length does an incoming req see
system.mem_ctrls.rdQLenPdf::17                      0                       # What read queue length does an incoming req see
system.mem_ctrls.rdQLenPdf::18                      0                       # What read queue length does an incoming req see
system.mem_ctrls.rdQLenPdf::19                      0                       # What read queue length does an incoming req see
system.mem_ctrls.rdQLenPdf::20                      0                       # What read queue length does an incoming req see
system.mem_ctrls.rdQLenPdf::21                      0                       # What read queue length does an incoming req see
system.mem_ctrls.rdQLenPdf::22                      0                       # What read queue length does an incoming req see
system.mem_ctrls.rdQLenPdf::23                      0                       # What read queue length does an incoming req see
system.mem_ctrls.rdQLenPdf::24                      0                       # What read queue length does an incoming req see
system.mem_ctrls.rdQLenPdf::25                      0                       # What read queue length does an incoming req see
system.mem_ctrls.rdQLenPdf::26                      0                       # What read queue length does an incoming req see
system.mem_ctrls.rdQLenPdf::27                      0                       # What read queue length does an incoming req see
system.mem_ctrls.rdQLenPdf::28                      0                       # What read queue length does an incoming req see
system.mem_ctrls.rdQLenPdf::29                      0                       # What read queue length does an incoming req see
system.mem_ctrls.rdQLenPdf::30                      0                       # What read queue length does an incoming req see
system.mem_ctrls.rdQLenPdf::31                      0                       # What read queue length does an incoming req see
system.mem_ctrls.wrQLenPdf::0                       0                       # What write queue length does an incoming req see
system.mem_ctrls.wrQLenPdf::1                       0                       # What write queue length does an incoming req see
system.mem_ctrls.wrQLenPdf::2                       0                       # What write queue length does an incoming req see
system.mem_ctrls.wrQLenPdf::3                       0                       # What write queue length does an incoming req see
system.mem_ctrls.wrQLenPdf::4                       0                       # What write queue length does an incoming req see
system.mem_ctrls.wrQLenPdf::5                       0                       # What write queue length does an incoming req see
system.mem_ctrls.wrQLenPdf::6                       0                       # What write queue length does an incoming req see
system.mem_ctrls.wrQLenPdf::7                       0                       # What write queue length does an incoming req see
system.mem_ctrls.wrQLenPdf::8                       0                       # What write queue length does an incoming req see
system.mem_ctrls.wrQLenPdf::9                       0                       # What write queue length does an incoming req see
system.mem_ctrls.wrQLenPdf::10                      0                       # What write queue length does an incoming req see
system.mem_ctrls.wrQLenPdf::11                      0                       # What write queue length does an incoming req see
system.mem_ctrls.wrQLenPdf::12                      0                       # What write queue length does an incoming req see
system.mem_ctrls.wrQLenPdf::13                      0                       # What write queue length does an incoming req see
system.mem_ctrls.wrQLenPdf::14                      0                       # What write queue length does an incoming req see
system.mem_ctrls.wrQLenPdf::15                   2824                       # What write queue length does an incoming req see
system.mem_ctrls.wrQLenPdf::16                   3218                       # What write queue length does an incoming req see
system.mem_ctrls.wrQLenPdf::17                 126029                       # What write queue length does an incoming req see
system.mem_ctrls.wrQLenPdf::18                 127122                       # What write queue length does an incoming req see
system.mem_ctrls.wrQLenPdf::19                 127115                       # What write queue length does an incoming req see
system.mem_ctrls.wrQLenPdf::20                 127139                       # What write queue length does an incoming req see
system.mem_ctrls.wrQLenPdf::21                 127092                       # What write queue length does an incoming req see
system.mem_ctrls.wrQLenPdf::22                 127054                       # What write queue length does an incoming req see
system.mem_ctrls.wrQLenPdf::23                 127056                       # What write queue length does an incoming req see
system.mem_ctrls.wrQLenPdf::24                 127067                       # What write queue length does an incoming req see
system.mem_ctrls.wrQLenPdf::25                 127036                       # What write queue length does an incoming req see
system.mem_ctrls.wrQLenPdf::26                 127032                       # What write queue length does an incoming req see
system.mem_ctrls.wrQLenPdf::27                 127030                       # What write queue length does an incoming req see
system.mem_ctrls.wrQLenPdf::28                 127038                       # What write queue length does an incoming req see
system.mem_ctrls.wrQLenPdf::29                 126980                       # What write queue length does an incoming req see
system.mem_ctrls.wrQLenPdf::30                 126980                       # What write queue length does an incoming req see
system.mem_ctrls.wrQLenPdf::31                 126966                       # What write queue length does an incoming req see
system.mem_ctrls.wrQLenPdf::32                 126941                       # What write queue length does an incoming req see
system.mem_ctrls.wrQLenPdf::33                     14                       # What write queue length does an incoming req see
system.mem_ctrls.wrQLenPdf::34                      2                       # What write queue length does an incoming req see
system.mem_ctrls.wrQLenPdf::35                      1                       # What write queue length does an incoming req see
system.mem_ctrls.wrQLenPdf::36                      1                       # What write queue length does an incoming req see
system.mem_ctrls.wrQLenPdf::37                      0                       # What write queue length does an incoming req see
system.mem_ctrls.wrQLenPdf::38                      0                       # What write queue length does an incoming req see
system.mem_ctrls.wrQLenPdf::39                      0                       # What write queue length does an incoming req see
system.mem_ctrls.wrQLenPdf::40                      0                       # What write queue length does an incoming req see
system.mem_ctrls.wrQLenPdf::41                      0                       # What write queue length does an incoming req see
system.mem_ctrls.wrQLenPdf::42                      0                       # What write queue length does an incoming req see
system.mem_ctrls.wrQLenPdf::43                      0                       # What write queue length does an incoming req see
system.mem_ctrls.wrQLenPdf::44                      0                       # What write queue length does an incoming req see
system.mem_ctrls.wrQLenPdf::45                      0                       # What write queue length does an incoming req see
system.mem_ctrls.wrQLenPdf::46                      0                       # What write queue length does an incoming req see
system.mem_ctrls.wrQLenPdf::47                      0                       # What write queue length does an incoming req see
system.mem_ctrls.wrQLenPdf::48                      0                       # What write queue length does an incoming req see
system.mem_ctrls.wrQLenPdf::49                      0                       # What write queue length does an incoming req see
system.mem_ctrls.wrQLenPdf::50                      0                       # What write queue length does an incoming req see
system.mem_ctrls.wrQLenPdf::51                      0                       # What write queue length does an incoming req see
system.mem_ctrls.wrQLenPdf::52                      0                       # What write queue length does an incoming req see
system.mem_ctrls.wrQLenPdf::53                      0                       # What write queue length does an incoming req see
system.mem_ctrls.wrQLenPdf::54                      0                       # What write queue length does an incoming req see
system.mem_ctrls.wrQLenPdf::55                      0                       # What write queue length does an incoming req see
system.mem_ctrls.wrQLenPdf::56                      0                       # What write queue length does an incoming req see
system.mem_ctrls.wrQLenPdf::57                      0                       # What write queue length does an incoming req see
system.mem_ctrls.wrQLenPdf::58                      0                       # What write queue length does an incoming req see
system.mem_ctrls.wrQLenPdf::59                      0                       # What write queue length does an incoming req see
system.mem_ctrls.wrQLenPdf::60                      0                       # What write queue length does an incoming req see
system.mem_ctrls.wrQLenPdf::61                      0                       # What write queue length does an incoming req see
system.mem_ctrls.wrQLenPdf::62                      0                       # What write queue length does an incoming req see
system.mem_ctrls.wrQLenPdf::63                      0                       # What write queue length does an incoming req see
system.mem_ctrls.bytesPerActivate::samples      5188555                       # Bytes accessed per row activation
system.mem_ctrls.bytesPerActivate::mean     72.072500                       # Bytes accessed per row activation
system.mem_ctrls.bytesPerActivate::gmean    68.930258                       # Bytes accessed per row activation
system.mem_ctrls.bytesPerActivate::stdev    37.767987                       # Bytes accessed per row activation
system.mem_ctrls.bytesPerActivate::0-127      4693830     90.47%     90.47% # Bytes accessed per row activation
system.mem_ctrls.bytesPerActivate::128-255       468154      9.02%     99.49% # Bytes accessed per row activation
system.mem_ctrls.bytesPerActivate::256-383        15747      0.30%     99.79% # Bytes accessed per row activation
system.mem_ctrls.bytesPerActivate::384-511         4958      0.10%     99.89% # Bytes accessed per row activation
system.mem_ctrls.bytesPerActivate::512-639          964      0.02%     99.91% # Bytes accessed per row activation
system.mem_ctrls.bytesPerActivate::640-767          712      0.01%     99.92% # Bytes accessed per row activation
system.mem_ctrls.bytesPerActivate::768-895          465      0.01%     99.93% # Bytes accessed per row activation
system.mem_ctrls.bytesPerActivate::896-1023          389      0.01%     99.94% # Bytes accessed per row activation
system.mem_ctrls.bytesPerActivate::1024-1151         3336      0.06%    100.00% # Bytes accessed per row activation
system.mem_ctrls.bytesPerActivate::total      5188555                       # Bytes accessed per row activation
system.mem_ctrls.rdPerTurnAround::samples       126934                       # Reads before turning the bus around for writes
system.mem_ctrls.rdPerTurnAround::mean      29.978319                       # Reads before turning the bus around for writes
system.mem_ctrls.rdPerTurnAround::stdev      8.707927                       # Reads before turning the bus around for writes
system.mem_ctrls.rdPerTurnAround::0-15            110      0.09%      0.09% # Reads before turning the bus around for writes
system.mem_ctrls.rdPerTurnAround::16-31         85643     67.47%     67.56% # Reads before turning the bus around for writes
system.mem_ctrls.rdPerTurnAround::32-47         40313     31.76%     99.32% # Reads before turning the bus around for writes
system.mem_ctrls.rdPerTurnAround::48-63           277      0.22%     99.53% # Reads before turning the bus around for writes
system.mem_ctrls.rdPerTurnAround::64-79            39      0.03%     99.57% # Reads before turning the bus around for writes
system.mem_ctrls.rdPerTurnAround::80-95            83      0.07%     99.63% # Reads before turning the bus around for writes
system.mem_ctrls.rdPerTurnAround::96-111          110      0.09%     99.72% # Reads before turning the bus around for writes
system.mem_ctrls.rdPerTurnAround::112-127          126      0.10%     99.82% # Reads before turning the bus around for writes
system.mem_ctrls.rdPerTurnAround::128-143           96      0.08%     99.89% # Reads before turning the bus around for writes
system.mem_ctrls.rdPerTurnAround::144-159           61      0.05%     99.94% # Reads before turning the bus around for writes
system.mem_ctrls.rdPerTurnAround::160-175           42      0.03%     99.97% # Reads before turning the bus around for writes
system.mem_ctrls.rdPerTurnAround::176-191           13      0.01%     99.98% # Reads before turning the bus around for writes
system.mem_ctrls.rdPerTurnAround::192-207            9      0.01%     99.99% # Reads before turning the bus around for writes
system.mem_ctrls.rdPerTurnAround::208-223            3      0.00%     99.99% # Reads before turning the bus around for writes
system.mem_ctrls.rdPerTurnAround::224-239            1      0.00%     99.99% # Reads before turning the bus around for writes
system.mem_ctrls.rdPerTurnAround::240-255            1      0.00%     99.99% # Reads before turning the bus around for writes
system.mem_ctrls.rdPerTurnAround::320-335            3      0.00%    100.00% # Reads before turning the bus around for writes
system.mem_ctrls.rdPerTurnAround::368-383            1      0.00%    100.00% # Reads before turning the bus around for writes
system.mem_ctrls.rdPerTurnAround::384-399            1      0.00%    100.00% # Reads before turning the bus around for writes
system.mem_ctrls.rdPerTurnAround::400-415            1      0.00%    100.00% # Reads before turning the bus around for writes
system.mem_ctrls.rdPerTurnAround::432-447            1      0.00%    100.00% # Reads before turning the bus around for writes
system.mem_ctrls.rdPerTurnAround::total        126934                       # Reads before turning the bus around for writes
system.mem_ctrls.wrPerTurnAround::samples       126934                       # Writes before turning the bus around for reads
system.mem_ctrls.wrPerTurnAround::mean      16.053548                       # Writes before turning the bus around for reads
system.mem_ctrls.wrPerTurnAround::gmean     16.049689                       # Writes before turning the bus around for reads
system.mem_ctrls.wrPerTurnAround::stdev      0.384164                       # Writes before turning the bus around for reads
system.mem_ctrls.wrPerTurnAround::16           123692     97.45%     97.45% # Writes before turning the bus around for reads
system.mem_ctrls.wrPerTurnAround::17              294      0.23%     97.68% # Writes before turning the bus around for reads
system.mem_ctrls.wrPerTurnAround::18             2817      2.22%     99.90% # Writes before turning the bus around for reads
system.mem_ctrls.wrPerTurnAround::19               36      0.03%     99.93% # Writes before turning the bus around for reads
system.mem_ctrls.wrPerTurnAround::20                2      0.00%     99.93% # Writes before turning the bus around for reads
system.mem_ctrls.wrPerTurnAround::21               21      0.02%     99.94% # Writes before turning the bus around for reads
system.mem_ctrls.wrPerTurnAround::22               12      0.01%     99.95% # Writes before turning the bus around for reads
system.mem_ctrls.wrPerTurnAround::23                2      0.00%     99.95% # Writes before turning the bus around for reads
system.mem_ctrls.wrPerTurnAround::24               32      0.03%     99.98% # Writes before turning the bus around for reads
system.mem_ctrls.wrPerTurnAround::25                8      0.01%     99.99% # Writes before turning the bus around for reads
system.mem_ctrls.wrPerTurnAround::26                1      0.00%     99.99% # Writes before turning the bus around for reads
system.mem_ctrls.wrPerTurnAround::28               16      0.01%    100.00% # Writes before turning the bus around for reads
system.mem_ctrls.wrPerTurnAround::48                1      0.00%    100.00% # Writes before turning the bus around for reads
system.mem_ctrls.wrPerTurnAround::total        126934                       # Writes before turning the bus around for reads
system.mem_ctrls.totQLat                  97704047174                       # Total ticks spent queuing
system.mem_ctrls.totMemAccLat            169052634674                       # Total ticks spent from burst creation until serviced by the DRAM
system.mem_ctrls.totBusLat                19026290000                       # Total ticks spent in databus transfers
system.mem_ctrls.avgQLat                     25676.06                       # Average queueing delay per DRAM burst
system.mem_ctrls.avgBusLat                    5000.00                       # Average bus latency per DRAM burst
system.mem_ctrls.avgMemAccLat                44426.06                       # Average memory access latency per DRAM burst
system.mem_ctrls.avgRdBW                       294.82                       # Average DRAM read bandwidth in MiByte/s
system.mem_ctrls.avgWrBW                       157.88                       # Average achieved write bandwidth in MiByte/s
system.mem_ctrls.avgRdBWSys                    294.88                       # Average system read bandwidth in MiByte/s
system.mem_ctrls.avgWrBWSys                    157.88                       # Average system write bandwidth in MiByte/s
system.mem_ctrls.peakBW                      12800.00                       # Theoretical peak bandwidth in MiByte/s
system.mem_ctrls.busUtil                         3.54                       # Data bus utilization in percentage
system.mem_ctrls.busUtilRead                     2.30                       # Data bus utilization in percentage for reads
system.mem_ctrls.busUtilWrite                    1.23                       # Data bus utilization in percentage for writes
system.mem_ctrls.avgRdQLen                       1.00                       # Average read queue length when enqueuing
system.mem_ctrls.avgWrQLen                      25.64                       # Average write queue length when enqueuing
system.mem_ctrls.readRowHits                   564136                       # Number of row buffer hits during reads
system.mem_ctrls.writeRowHits                   90310                       # Number of row buffer hits during writes
system.mem_ctrls.readRowHitRate                 14.83                       # Row buffer hit rate for reads
system.mem_ctrls.writeRowHitRate                 4.43                       # Row buffer hit rate for writes
system.mem_ctrls.avgGap                     141356.78                       # Average gap between requests
system.mem_ctrls.pageHitRate                    11.20                       # Row buffer hit rate, read and write combined
system.mem_ctrls_0.actEnergy              19606693680                       # Energy for activate commands per rank (pJ)
system.mem_ctrls_0.preEnergy              10698096750                       # Energy for precharge commands per rank (pJ)
system.mem_ctrls_0.readEnergy             14961546600                       # Energy for read commands per rank (pJ)
system.mem_ctrls_0.writeEnergy             6610824720                       # Energy for write commands per rank (pJ)
system.mem_ctrls_0.refreshEnergy          54455587680                       # Energy for refresh commands per rank (pJ)
system.mem_ctrls_0.actBackEnergy         530444708640                       # Energy for active background per rank (pJ)
system.mem_ctrls_0.preBackEnergy          34939426500                       # Energy for precharge background per rank (pJ)
system.mem_ctrls_0.totalEnergy           671716884570                       # Total energy per rank (pJ)
system.mem_ctrls_0.averagePower            805.670635                       # Core power per rank (mW)
system.mem_ctrls_0.memoryStateTime::IDLE  52333014250                       # Time in different power states
system.mem_ctrls_0.memoryStateTime::REF   27584180000                       # Time in different power states
system.mem_ctrls_0.memoryStateTime::PRE_PDN            0                       # Time in different power states
system.mem_ctrls_0.memoryStateTime::ACT  746149427000                       # Time in different power states
system.mem_ctrls_0.memoryStateTime::ACT_PDN            0                       # Time in different power states
system.mem_ctrls_1.actEnergy              19666803240                       # Energy for activate commands per rank (pJ)
system.mem_ctrls_1.preEnergy              10730894625                       # Energy for precharge commands per rank (pJ)
system.mem_ctrls_1.readEnergy             14939917200                       # Energy for read commands per rank (pJ)
system.mem_ctrls_1.writeEnergy             6602932080                       # Energy for write commands per rank (pJ)
system.mem_ctrls_1.refreshEnergy          54455587680                       # Energy for refresh commands per rank (pJ)
system.mem_ctrls_1.actBackEnergy         532735145910                       # Energy for active background per rank (pJ)
system.mem_ctrls_1.preBackEnergy          32930271000                       # Energy for precharge background per rank (pJ)
system.mem_ctrls_1.totalEnergy           672061551735                       # Total energy per rank (pJ)
system.mem_ctrls_1.averagePower            806.084036                       # Core power per rank (mW)
system.mem_ctrls_1.memoryStateTime::IDLE  47902583002                       # Time in different power states
system.mem_ctrls_1.memoryStateTime::REF   27584180000                       # Time in different power states
system.mem_ctrls_1.memoryStateTime::PRE_PDN            0                       # Time in different power states
system.mem_ctrls_1.memoryStateTime::ACT  750579858248                       # Time in different power states
system.mem_ctrls_1.memoryStateTime::ACT_PDN            0                       # Time in different power states
system.cpu_voltage_domain.voltage                   1                       # Voltage in Volts
system.cpu_clk_domain.clock                       500                       # Clock period in ticks
system.cpu0.apic_clk_domain.clock                8000                       # Clock period in ticks
system.cpu0.numCycles                      1650607873                       # number of cpu cycles simulated
system.cpu0.numWorkItemsStarted                     0                       # number of work items this cpu started
system.cpu0.numWorkItemsCompleted                   0                       # number of work items this cpu completed
system.cpu0.kern.inst.arm                           0                       # number of arm instructions executed
system.cpu0.kern.inst.quiesce                       0                       # number of quiesce instructions executed
system.cpu0.committedInsts                  269386054                       # Number of instructions committed
system.cpu0.committedOps                    442806253                       # Number of ops (including micro ops) committed
system.cpu0.num_int_alu_accesses            346775334                       # Number of integer alu accesses
system.cpu0.num_fp_alu_accesses             109594681                       # Number of float alu accesses
system.cpu0.num_func_calls                    5384368                       # number of times a function call or return occured
system.cpu0.num_conditional_control_insts     16432276                       # number of instructions that are conditional controls
system.cpu0.num_int_insts                   346775334                       # number of integer instructions
system.cpu0.num_fp_insts                    109594681                       # number of float instructions
system.cpu0.num_int_register_reads          737575752                       # number of times the integer registers were read
system.cpu0.num_int_register_writes         276252986                       # number of times the integer registers were written
system.cpu0.num_fp_register_reads           204618310                       # number of times the floating registers were read
system.cpu0.num_fp_register_writes          105641720                       # number of times the floating registers were written
system.cpu0.num_cc_register_reads           177578977                       # number of times the CC registers were read
system.cpu0.num_cc_register_writes          152857577                       # number of times the CC registers were written
system.cpu0.num_mem_refs                     92937265                       # number of memory refs
system.cpu0.num_load_insts                   73890572                       # Number of load instructions
system.cpu0.num_store_insts                  19046693                       # Number of store instructions
system.cpu0.num_idle_cycles              17704062.696902                       # Number of idle cycles
system.cpu0.num_busy_cycles              1632903810.303098                       # Number of busy cycles
system.cpu0.not_idle_fraction                0.989274                       # Percentage of non-idle cycles
system.cpu0.idle_fraction                    0.010726                       # Percentage of idle cycles
system.cpu0.Branches                         26514338                       # Number of branches fetched
system.cpu0.op_class::No_OpClass              3914310      0.88%      0.88% # Class of executed instruction
system.cpu0.op_class::IntAlu                254938146     57.57%     58.46% # Class of executed instruction
system.cpu0.op_class::IntMult                    3060      0.00%     58.46% # Class of executed instruction
system.cpu0.op_class::IntDiv                      441      0.00%     58.46% # Class of executed instruction
system.cpu0.op_class::FloatAdd               91015565     20.55%     79.01% # Class of executed instruction
system.cpu0.op_class::FloatCmp                      0      0.00%     79.01% # Class of executed instruction
system.cpu0.op_class::FloatCvt                      0      0.00%     79.01% # Class of executed instruction
system.cpu0.op_class::FloatMult                     0      0.00%     79.01% # Class of executed instruction
system.cpu0.op_class::FloatDiv                      0      0.00%     79.01% # Class of executed instruction
system.cpu0.op_class::FloatSqrt                     0      0.00%     79.01% # Class of executed instruction
system.cpu0.op_class::SimdAdd                       0      0.00%     79.01% # Class of executed instruction
system.cpu0.op_class::SimdAddAcc                    0      0.00%     79.01% # Class of executed instruction
system.cpu0.op_class::SimdAlu                       0      0.00%     79.01% # Class of executed instruction
system.cpu0.op_class::SimdCmp                       0      0.00%     79.01% # Class of executed instruction
system.cpu0.op_class::SimdCvt                       0      0.00%     79.01% # Class of executed instruction
system.cpu0.op_class::SimdMisc                      0      0.00%     79.01% # Class of executed instruction
system.cpu0.op_class::SimdMult                      0      0.00%     79.01% # Class of executed instruction
system.cpu0.op_class::SimdMultAcc                   0      0.00%     79.01% # Class of executed instruction
system.cpu0.op_class::SimdShift                     0      0.00%     79.01% # Class of executed instruction
system.cpu0.op_class::SimdShiftAcc                  0      0.00%     79.01% # Class of executed instruction
system.cpu0.op_class::SimdSqrt                      0      0.00%     79.01% # Class of executed instruction
system.cpu0.op_class::SimdFloatAdd                  0      0.00%     79.01% # Class of executed instruction
system.cpu0.op_class::SimdFloatAlu                  0      0.00%     79.01% # Class of executed instruction
system.cpu0.op_class::SimdFloatCmp                  0      0.00%     79.01% # Class of executed instruction
system.cpu0.op_class::SimdFloatCvt                  0      0.00%     79.01% # Class of executed instruction
system.cpu0.op_class::SimdFloatDiv                  0      0.00%     79.01% # Class of executed instruction
system.cpu0.op_class::SimdFloatMisc                 0      0.00%     79.01% # Class of executed instruction
system.cpu0.op_class::SimdFloatMult                 0      0.00%     79.01% # Class of executed instruction
system.cpu0.op_class::SimdFloatMultAcc              0      0.00%     79.01% # Class of executed instruction
system.cpu0.op_class::SimdFloatSqrt                 0      0.00%     79.01% # Class of executed instruction
system.cpu0.op_class::MemRead                73890572     16.69%     95.70% # Class of executed instruction
system.cpu0.op_class::MemWrite               19046693      4.30%    100.00% # Class of executed instruction
system.cpu0.op_class::IprAccess                     0      0.00%    100.00% # Class of executed instruction
system.cpu0.op_class::InstPrefetch                  0      0.00%    100.00% # Class of executed instruction
system.cpu0.op_class::total                 442808787                       # Class of executed instruction
system.cpu1.apic_clk_domain.clock                8000                       # Clock period in ticks
system.cpu1.numCycles                      1654093392                       # number of cpu cycles simulated
system.cpu1.numWorkItemsStarted                     0                       # number of work items this cpu started
system.cpu1.numWorkItemsCompleted                   0                       # number of work items this cpu completed
system.cpu1.kern.inst.arm                           0                       # number of arm instructions executed
system.cpu1.kern.inst.quiesce                       0                       # number of quiesce instructions executed
system.cpu1.committedInsts                    3100312                       # Number of instructions committed
system.cpu1.committedOps                      6159682                       # Number of ops (including micro ops) committed
system.cpu1.num_int_alu_accesses              6025350                       # Number of integer alu accesses
system.cpu1.num_fp_alu_accesses                   487                       # Number of float alu accesses
system.cpu1.num_func_calls                     128643                       # number of times a function call or return occured
system.cpu1.num_conditional_control_insts       538483                       # number of instructions that are conditional controls
system.cpu1.num_int_insts                     6025350                       # number of integer instructions
system.cpu1.num_fp_insts                          487                       # number of float instructions
system.cpu1.num_int_register_reads           11621319                       # number of times the integer registers were read
system.cpu1.num_int_register_writes           4929228                       # number of times the integer registers were written
system.cpu1.num_fp_register_reads                 791                       # number of times the floating registers were read
system.cpu1.num_fp_register_writes                356                       # number of times the floating registers were written
system.cpu1.num_cc_register_reads             3925341                       # number of times the CC registers were read
system.cpu1.num_cc_register_writes            2327695                       # number of times the CC registers were written
system.cpu1.num_mem_refs                      1187631                       # number of memory refs
system.cpu1.num_load_insts                     753946                       # Number of load instructions
system.cpu1.num_store_insts                    433685                       # Number of store instructions
system.cpu1.num_idle_cycles              1636363502.196072                       # Number of idle cycles
system.cpu1.num_busy_cycles              17729889.803928                       # Number of busy cycles
system.cpu1.not_idle_fraction                0.010719                       # Percentage of non-idle cycles
system.cpu1.idle_fraction                    0.989281                       # Percentage of idle cycles
system.cpu1.Branches                           711268                       # Number of branches fetched
system.cpu1.op_class::No_OpClass                38086      0.62%      0.62% # Class of executed instruction
system.cpu1.op_class::IntAlu                  4918631     79.85%     80.47% # Class of executed instruction
system.cpu1.op_class::IntMult                    8247      0.13%     80.60% # Class of executed instruction
system.cpu1.op_class::IntDiv                     6842      0.11%     80.71% # Class of executed instruction
system.cpu1.op_class::FloatAdd                    334      0.01%     80.72% # Class of executed instruction
system.cpu1.op_class::FloatCmp                      0      0.00%     80.72% # Class of executed instruction
system.cpu1.op_class::FloatCvt                      0      0.00%     80.72% # Class of executed instruction
system.cpu1.op_class::FloatMult                     0      0.00%     80.72% # Class of executed instruction
system.cpu1.op_class::FloatDiv                      0      0.00%     80.72% # Class of executed instruction
system.cpu1.op_class::FloatSqrt                     0      0.00%     80.72% # Class of executed instruction
system.cpu1.op_class::SimdAdd                       0      0.00%     80.72% # Class of executed instruction
system.cpu1.op_class::SimdAddAcc                    0      0.00%     80.72% # Class of executed instruction
system.cpu1.op_class::SimdAlu                       0      0.00%     80.72% # Class of executed instruction
system.cpu1.op_class::SimdCmp                       0      0.00%     80.72% # Class of executed instruction
system.cpu1.op_class::SimdCvt                       0      0.00%     80.72% # Class of executed instruction
system.cpu1.op_class::SimdMisc                      0      0.00%     80.72% # Class of executed instruction
system.cpu1.op_class::SimdMult                      0      0.00%     80.72% # Class of executed instruction
system.cpu1.op_class::SimdMultAcc                   0      0.00%     80.72% # Class of executed instruction
system.cpu1.op_class::SimdShift                     0      0.00%     80.72% # Class of executed instruction
system.cpu1.op_class::SimdShiftAcc                  0      0.00%     80.72% # Class of executed instruction
system.cpu1.op_class::SimdSqrt                      0      0.00%     80.72% # Class of executed instruction
system.cpu1.op_class::SimdFloatAdd                  0      0.00%     80.72% # Class of executed instruction
system.cpu1.op_class::SimdFloatAlu                  0      0.00%     80.72% # Class of executed instruction
system.cpu1.op_class::SimdFloatCmp                  0      0.00%     80.72% # Class of executed instruction
system.cpu1.op_class::SimdFloatCvt                  0      0.00%     80.72% # Class of executed instruction
system.cpu1.op_class::SimdFloatDiv                  0      0.00%     80.72% # Class of executed instruction
system.cpu1.op_class::SimdFloatMisc                 0      0.00%     80.72% # Class of executed instruction
system.cpu1.op_class::SimdFloatMult                 0      0.00%     80.72% # Class of executed instruction
system.cpu1.op_class::SimdFloatMultAcc              0      0.00%     80.72% # Class of executed instruction
system.cpu1.op_class::SimdFloatSqrt                 0      0.00%     80.72% # Class of executed instruction
system.cpu1.op_class::MemRead                  753946     12.24%     92.96% # Class of executed instruction
system.cpu1.op_class::MemWrite                 433685      7.04%    100.00% # Class of executed instruction
system.cpu1.op_class::IprAccess                     0      0.00%    100.00% # Class of executed instruction
system.cpu1.op_class::InstPrefetch                  0      0.00%    100.00% # Class of executed instruction
system.cpu1.op_class::total                   6159771                       # Class of executed instruction
system.cpu2.apic_clk_domain.clock                8000                       # Clock period in ticks
system.cpu2.numCycles                      1647733668                       # number of cpu cycles simulated
system.cpu2.numWorkItemsStarted                     0                       # number of work items this cpu started
system.cpu2.numWorkItemsCompleted                   0                       # number of work items this cpu completed
system.cpu2.kern.inst.arm                           0                       # number of arm instructions executed
system.cpu2.kern.inst.quiesce                       0                       # number of quiesce instructions executed
system.cpu2.committedInsts                    1352522                       # Number of instructions committed
system.cpu2.committedOps                      2814326                       # Number of ops (including micro ops) committed
system.cpu2.num_int_alu_accesses              2764661                       # Number of integer alu accesses
system.cpu2.num_fp_alu_accesses                    68                       # Number of float alu accesses
system.cpu2.num_func_calls                      72538                       # number of times a function call or return occured
system.cpu2.num_conditional_control_insts       231898                       # number of instructions that are conditional controls
system.cpu2.num_int_insts                     2764661                       # number of integer instructions
system.cpu2.num_fp_insts                           68                       # number of float instructions
system.cpu2.num_int_register_reads            5410758                       # number of times the integer registers were read
system.cpu2.num_int_register_writes           2269964                       # number of times the integer registers were written
system.cpu2.num_fp_register_reads                  70                       # number of times the floating registers were read
system.cpu2.num_fp_register_writes                 62                       # number of times the floating registers were written
system.cpu2.num_cc_register_reads             1727974                       # number of times the CC registers were read
system.cpu2.num_cc_register_writes             929241                       # number of times the CC registers were written
system.cpu2.num_mem_refs                       579324                       # number of memory refs
system.cpu2.num_load_insts                     360313                       # Number of load instructions
system.cpu2.num_store_insts                    219011                       # Number of store instructions
system.cpu2.num_idle_cycles              1639448599.999581                       # Number of idle cycles
system.cpu2.num_busy_cycles              8285068.000419                       # Number of busy cycles
system.cpu2.not_idle_fraction                0.005028                       # Percentage of non-idle cycles
system.cpu2.idle_fraction                    0.994972                       # Percentage of idle cycles
system.cpu2.Branches                           327617                       # Number of branches fetched
system.cpu2.op_class::No_OpClass                35843      1.27%      1.27% # Class of executed instruction
system.cpu2.op_class::IntAlu                  2186386     77.67%     78.95% # Class of executed instruction
system.cpu2.op_class::IntMult                    3823      0.14%     79.08% # Class of executed instruction
system.cpu2.op_class::IntDiv                     9487      0.34%     79.42% # Class of executed instruction
system.cpu2.op_class::FloatAdd                     24      0.00%     79.42% # Class of executed instruction
system.cpu2.op_class::FloatCmp                      0      0.00%     79.42% # Class of executed instruction
system.cpu2.op_class::FloatCvt                      0      0.00%     79.42% # Class of executed instruction
system.cpu2.op_class::FloatMult                     0      0.00%     79.42% # Class of executed instruction
system.cpu2.op_class::FloatDiv                      0      0.00%     79.42% # Class of executed instruction
system.cpu2.op_class::FloatSqrt                     0      0.00%     79.42% # Class of executed instruction
system.cpu2.op_class::SimdAdd                       0      0.00%     79.42% # Class of executed instruction
system.cpu2.op_class::SimdAddAcc                    0      0.00%     79.42% # Class of executed instruction
system.cpu2.op_class::SimdAlu                       0      0.00%     79.42% # Class of executed instruction
system.cpu2.op_class::SimdCmp                       0      0.00%     79.42% # Class of executed instruction
system.cpu2.op_class::SimdCvt                       0      0.00%     79.42% # Class of executed instruction
system.cpu2.op_class::SimdMisc                      0      0.00%     79.42% # Class of executed instruction
system.cpu2.op_class::SimdMult                      0      0.00%     79.42% # Class of executed instruction
system.cpu2.op_class::SimdMultAcc                   0      0.00%     79.42% # Class of executed instruction
system.cpu2.op_class::SimdShift                     0      0.00%     79.42% # Class of executed instruction
system.cpu2.op_class::SimdShiftAcc                  0      0.00%     79.42% # Class of executed instruction
system.cpu2.op_class::SimdSqrt                      0      0.00%     79.42% # Class of executed instruction
system.cpu2.op_class::SimdFloatAdd                  0      0.00%     79.42% # Class of executed instruction
system.cpu2.op_class::SimdFloatAlu                  0      0.00%     79.42% # Class of executed instruction
system.cpu2.op_class::SimdFloatCmp                  0      0.00%     79.42% # Class of executed instruction
system.cpu2.op_class::SimdFloatCvt                  0      0.00%     79.42% # Class of executed instruction
system.cpu2.op_class::SimdFloatDiv                  0      0.00%     79.42% # Class of executed instruction
system.cpu2.op_class::SimdFloatMisc                 0      0.00%     79.42% # Class of executed instruction
system.cpu2.op_class::SimdFloatMult                 0      0.00%     79.42% # Class of executed instruction
system.cpu2.op_class::SimdFloatMultAcc              0      0.00%     79.42% # Class of executed instruction
system.cpu2.op_class::SimdFloatSqrt                 0      0.00%     79.42% # Class of executed instruction
system.cpu2.op_class::MemRead                  360313     12.80%     92.22% # Class of executed instruction
system.cpu2.op_class::MemWrite                 219011      7.78%    100.00% # Class of executed instruction
system.cpu2.op_class::IprAccess                     0      0.00%    100.00% # Class of executed instruction
system.cpu2.op_class::InstPrefetch                  0      0.00%    100.00% # Class of executed instruction
system.cpu2.op_class::total                   2814887                       # Class of executed instruction
system.cpu3.apic_clk_domain.clock                8000                       # Clock period in ticks
system.cpu3.numCycles                      1650090253                       # number of cpu cycles simulated
system.cpu3.numWorkItemsStarted                     0                       # number of work items this cpu started
system.cpu3.numWorkItemsCompleted                   0                       # number of work items this cpu completed
system.cpu3.kern.inst.arm                           0                       # number of arm instructions executed
system.cpu3.kern.inst.quiesce                       0                       # number of quiesce instructions executed
system.cpu3.committedInsts                    2719017                       # Number of instructions committed
system.cpu3.committedOps                      5343021                       # Number of ops (including micro ops) committed
system.cpu3.num_int_alu_accesses              5261966                       # Number of integer alu accesses
system.cpu3.num_fp_alu_accesses                  1813                       # Number of float alu accesses
system.cpu3.num_func_calls                     130952                       # number of times a function call or return occured
system.cpu3.num_conditional_control_insts       489349                       # number of instructions that are conditional controls
system.cpu3.num_int_insts                     5261966                       # number of integer instructions
system.cpu3.num_fp_insts                         1813                       # number of float instructions
system.cpu3.num_int_register_reads           10288632                       # number of times the integer registers were read
system.cpu3.num_int_register_writes           4252318                       # number of times the integer registers were written
system.cpu3.num_fp_register_reads                3040                       # number of times the floating registers were read
system.cpu3.num_fp_register_writes               1440                       # number of times the floating registers were written
system.cpu3.num_cc_register_reads             3528067                       # number of times the CC registers were read
system.cpu3.num_cc_register_writes            1891347                       # number of times the CC registers were written
system.cpu3.num_mem_refs                      1142197                       # number of memory refs
system.cpu3.num_load_insts                     741589                       # Number of load instructions
system.cpu3.num_store_insts                    400608                       # Number of store instructions
system.cpu3.num_idle_cycles              1636421570.300586                       # Number of idle cycles
system.cpu3.num_busy_cycles              13668682.699414                       # Number of busy cycles
system.cpu3.not_idle_fraction                0.008284                       # Percentage of non-idle cycles
system.cpu3.idle_fraction                    0.991716                       # Percentage of idle cycles
system.cpu3.Branches                           643667                       # Number of branches fetched
system.cpu3.op_class::No_OpClass                23816      0.45%      0.45% # Class of executed instruction
system.cpu3.op_class::IntAlu                  4165449     77.96%     78.40% # Class of executed instruction
system.cpu3.op_class::IntMult                    4195      0.08%     78.48% # Class of executed instruction
system.cpu3.op_class::IntDiv                     6099      0.11%     78.60% # Class of executed instruction
system.cpu3.op_class::FloatAdd                   1356      0.03%     78.62% # Class of executed instruction
system.cpu3.op_class::FloatCmp                      0      0.00%     78.62% # Class of executed instruction
system.cpu3.op_class::FloatCvt                      0      0.00%     78.62% # Class of executed instruction
system.cpu3.op_class::FloatMult                     0      0.00%     78.62% # Class of executed instruction
system.cpu3.op_class::FloatDiv                      0      0.00%     78.62% # Class of executed instruction
system.cpu3.op_class::FloatSqrt                     0      0.00%     78.62% # Class of executed instruction
system.cpu3.op_class::SimdAdd                       0      0.00%     78.62% # Class of executed instruction
system.cpu3.op_class::SimdAddAcc                    0      0.00%     78.62% # Class of executed instruction
system.cpu3.op_class::SimdAlu                       0      0.00%     78.62% # Class of executed instruction
system.cpu3.op_class::SimdCmp                       0      0.00%     78.62% # Class of executed instruction
system.cpu3.op_class::SimdCvt                       0      0.00%     78.62% # Class of executed instruction
system.cpu3.op_class::SimdMisc                      0      0.00%     78.62% # Class of executed instruction
system.cpu3.op_class::SimdMult                      0      0.00%     78.62% # Class of executed instruction
system.cpu3.op_class::SimdMultAcc                   0      0.00%     78.62% # Class of executed instruction
system.cpu3.op_class::SimdShift                     0      0.00%     78.62% # Class of executed instruction
system.cpu3.op_class::SimdShiftAcc                  0      0.00%     78.62% # Class of executed instruction
system.cpu3.op_class::SimdSqrt                      0      0.00%     78.62% # Class of executed instruction
system.cpu3.op_class::SimdFloatAdd                  0      0.00%     78.62% # Class of executed instruction
system.cpu3.op_class::SimdFloatAlu                  0      0.00%     78.62% # Class of executed instruction
system.cpu3.op_class::SimdFloatCmp                  0      0.00%     78.62% # Class of executed instruction
system.cpu3.op_class::SimdFloatCvt                  0      0.00%     78.62% # Class of executed instruction
system.cpu3.op_class::SimdFloatDiv                  0      0.00%     78.62% # Class of executed instruction
system.cpu3.op_class::SimdFloatMisc                 0      0.00%     78.62% # Class of executed instruction
system.cpu3.op_class::SimdFloatMult                 0      0.00%     78.62% # Class of executed instruction
system.cpu3.op_class::SimdFloatMultAcc              0      0.00%     78.62% # Class of executed instruction
system.cpu3.op_class::SimdFloatSqrt                 0      0.00%     78.62% # Class of executed instruction
system.cpu3.op_class::MemRead                  741589     13.88%     92.50% # Class of executed instruction
system.cpu3.op_class::MemWrite                 400608      7.50%    100.00% # Class of executed instruction
system.cpu3.op_class::IprAccess                     0      0.00%    100.00% # Class of executed instruction
system.cpu3.op_class::InstPrefetch                  0      0.00%    100.00% # Class of executed instruction
system.cpu3.op_class::total                   5343112                       # Class of executed instruction
system.iobus.trans_dist::ReadReq                  559                       # Transaction distribution
system.iobus.trans_dist::ReadResp                 559                       # Transaction distribution
system.iobus.trans_dist::WriteReq                1846                       # Transaction distribution
system.iobus.trans_dist::WriteResp               1846                       # Transaction distribution
system.iobus.trans_dist::MessageReq                77                       # Transaction distribution
system.iobus.trans_dist::MessageResp               77                       # Transaction distribution
system.iobus.pkt_count_system.pc.south_bridge.io_apic.int_master::system.ruby.l1_cntrl0.sequencer.pio-slave-port           32                       # Packet count per connected master and slave (bytes)
system.iobus.pkt_count_system.pc.south_bridge.io_apic.int_master::system.ruby.l1_cntrl1.sequencer.pio-slave-port           32                       # Packet count per connected master and slave (bytes)
system.iobus.pkt_count_system.pc.south_bridge.io_apic.int_master::system.ruby.l1_cntrl2.sequencer.pio-slave-port           32                       # Packet count per connected master and slave (bytes)
system.iobus.pkt_count_system.pc.south_bridge.io_apic.int_master::system.ruby.l1_cntrl3.sequencer.pio-slave-port           32                       # Packet count per connected master and slave (bytes)
system.iobus.pkt_count_system.pc.south_bridge.io_apic.int_master::total          128                       # Packet count per connected master and slave (bytes)
system.iobus.pkt_count_system.ruby.l1_cntrl0.sequencer.mem-master-port::system.pc.south_bridge.ide.pio          622                       # Packet count per connected master and slave (bytes)
system.iobus.pkt_count_system.ruby.l1_cntrl0.sequencer.mem-master-port::system.pc.south_bridge.io_apic.pio            8                       # Packet count per connected master and slave (bytes)
system.iobus.pkt_count_system.ruby.l1_cntrl0.sequencer.mem-master-port::system.ruby.l1_cntrl0.sequencer.pio-slave-port          468                       # Packet count per connected master and slave (bytes)
system.iobus.pkt_count_system.ruby.l1_cntrl0.sequencer.mem-master-port::system.ruby.l1_cntrl1.sequencer.pio-slave-port            4                       # Packet count per connected master and slave (bytes)
system.iobus.pkt_count_system.ruby.l1_cntrl0.sequencer.mem-master-port::system.ruby.l1_cntrl2.sequencer.pio-slave-port            2                       # Packet count per connected master and slave (bytes)
system.iobus.pkt_count_system.ruby.l1_cntrl0.sequencer.mem-master-port::system.ruby.l1_cntrl3.sequencer.pio-slave-port            2                       # Packet count per connected master and slave (bytes)
system.iobus.pkt_count_system.ruby.l1_cntrl0.sequencer.mem-master-port::total         1106                       # Packet count per connected master and slave (bytes)
system.iobus.pkt_count_system.ruby.l1_cntrl1.sequencer.mem-master-port::system.pc.south_bridge.ide.pio          894                       # Packet count per connected master and slave (bytes)
system.iobus.pkt_count_system.ruby.l1_cntrl1.sequencer.mem-master-port::system.pc.south_bridge.io_apic.pio            6                       # Packet count per connected master and slave (bytes)
system.iobus.pkt_count_system.ruby.l1_cntrl1.sequencer.mem-master-port::system.pc.com_1.pio           22                       # Packet count per connected master and slave (bytes)
system.iobus.pkt_count_system.ruby.l1_cntrl1.sequencer.mem-master-port::system.ruby.l1_cntrl0.sequencer.pio-slave-port            4                       # Packet count per connected master and slave (bytes)
system.iobus.pkt_count_system.ruby.l1_cntrl1.sequencer.mem-master-port::system.ruby.l1_cntrl1.sequencer.pio-slave-port          476                       # Packet count per connected master and slave (bytes)
system.iobus.pkt_count_system.ruby.l1_cntrl1.sequencer.mem-master-port::system.ruby.l1_cntrl2.sequencer.pio-slave-port            4                       # Packet count per connected master and slave (bytes)
system.iobus.pkt_count_system.ruby.l1_cntrl1.sequencer.mem-master-port::total         1406                       # Packet count per connected master and slave (bytes)
system.iobus.pkt_count_system.ruby.l1_cntrl2.sequencer.mem-master-port::system.pc.south_bridge.ide.pio          576                       # Packet count per connected master and slave (bytes)
system.iobus.pkt_count_system.ruby.l1_cntrl2.sequencer.mem-master-port::system.pc.south_bridge.io_apic.pio           14                       # Packet count per connected master and slave (bytes)
system.iobus.pkt_count_system.ruby.l1_cntrl2.sequencer.mem-master-port::system.pc.com_1.pio          162                       # Packet count per connected master and slave (bytes)
system.iobus.pkt_count_system.ruby.l1_cntrl2.sequencer.mem-master-port::system.ruby.l1_cntrl1.sequencer.pio-slave-port            2                       # Packet count per connected master and slave (bytes)
system.iobus.pkt_count_system.ruby.l1_cntrl2.sequencer.mem-master-port::system.ruby.l1_cntrl2.sequencer.pio-slave-port          464                       # Packet count per connected master and slave (bytes)
system.iobus.pkt_count_system.ruby.l1_cntrl2.sequencer.mem-master-port::system.ruby.l1_cntrl3.sequencer.pio-slave-port            2                       # Packet count per connected master and slave (bytes)
system.iobus.pkt_count_system.ruby.l1_cntrl2.sequencer.mem-master-port::total         1220                       # Packet count per connected master and slave (bytes)
system.iobus.pkt_count_system.ruby.l1_cntrl3.sequencer.mem-master-port::system.pc.south_bridge.ide.pio          622                       # Packet count per connected master and slave (bytes)
system.iobus.pkt_count_system.ruby.l1_cntrl3.sequencer.mem-master-port::system.pc.south_bridge.io_apic.pio            8                       # Packet count per connected master and slave (bytes)
system.iobus.pkt_count_system.ruby.l1_cntrl3.sequencer.mem-master-port::system.ruby.l1_cntrl0.sequencer.pio-slave-port            2                       # Packet count per connected master and slave (bytes)
system.iobus.pkt_count_system.ruby.l1_cntrl3.sequencer.mem-master-port::system.ruby.l1_cntrl1.sequencer.pio-slave-port            2                       # Packet count per connected master and slave (bytes)
system.iobus.pkt_count_system.ruby.l1_cntrl3.sequencer.mem-master-port::system.ruby.l1_cntrl2.sequencer.pio-slave-port            2                       # Packet count per connected master and slave (bytes)
system.iobus.pkt_count_system.ruby.l1_cntrl3.sequencer.mem-master-port::system.ruby.l1_cntrl3.sequencer.pio-slave-port          468                       # Packet count per connected master and slave (bytes)
system.iobus.pkt_count_system.ruby.l1_cntrl3.sequencer.mem-master-port::total         1104                       # Packet count per connected master and slave (bytes)
system.iobus.pkt_count::total                    4964                       # Packet count per connected master and slave (bytes)
system.iobus.pkt_size_system.pc.south_bridge.io_apic.int_master::system.ruby.l1_cntrl0.sequencer.pio-slave-port           64                       # Cumulative packet size per connected master and slave (bytes)
system.iobus.pkt_size_system.pc.south_bridge.io_apic.int_master::system.ruby.l1_cntrl1.sequencer.pio-slave-port           64                       # Cumulative packet size per connected master and slave (bytes)
system.iobus.pkt_size_system.pc.south_bridge.io_apic.int_master::system.ruby.l1_cntrl2.sequencer.pio-slave-port           64                       # Cumulative packet size per connected master and slave (bytes)
system.iobus.pkt_size_system.pc.south_bridge.io_apic.int_master::system.ruby.l1_cntrl3.sequencer.pio-slave-port           64                       # Cumulative packet size per connected master and slave (bytes)
system.iobus.pkt_size_system.pc.south_bridge.io_apic.int_master::total          256                       # Cumulative packet size per connected master and slave (bytes)
system.iobus.pkt_size_system.ruby.l1_cntrl0.sequencer.mem-master-port::system.pc.south_bridge.ide.pio          350                       # Cumulative packet size per connected master and slave (bytes)
system.iobus.pkt_size_system.ruby.l1_cntrl0.sequencer.mem-master-port::system.pc.south_bridge.io_apic.pio           16                       # Cumulative packet size per connected master and slave (bytes)
system.iobus.pkt_size_system.ruby.l1_cntrl0.sequencer.mem-master-port::system.ruby.l1_cntrl0.sequencer.pio-slave-port          936                       # Cumulative packet size per connected master and slave (bytes)
system.iobus.pkt_size_system.ruby.l1_cntrl0.sequencer.mem-master-port::system.ruby.l1_cntrl1.sequencer.pio-slave-port            8                       # Cumulative packet size per connected master and slave (bytes)
system.iobus.pkt_size_system.ruby.l1_cntrl0.sequencer.mem-master-port::system.ruby.l1_cntrl2.sequencer.pio-slave-port            4                       # Cumulative packet size per connected master and slave (bytes)
system.iobus.pkt_size_system.ruby.l1_cntrl0.sequencer.mem-master-port::system.ruby.l1_cntrl3.sequencer.pio-slave-port            4                       # Cumulative packet size per connected master and slave (bytes)
system.iobus.pkt_size_system.ruby.l1_cntrl0.sequencer.mem-master-port::total         1318                       # Cumulative packet size per connected master and slave (bytes)
system.iobus.pkt_size_system.ruby.l1_cntrl1.sequencer.mem-master-port::system.pc.south_bridge.ide.pio          510                       # Cumulative packet size per connected master and slave (bytes)
system.iobus.pkt_size_system.ruby.l1_cntrl1.sequencer.mem-master-port::system.pc.south_bridge.io_apic.pio           12                       # Cumulative packet size per connected master and slave (bytes)
system.iobus.pkt_size_system.ruby.l1_cntrl1.sequencer.mem-master-port::system.pc.com_1.pio           11                       # Cumulative packet size per connected master and slave (bytes)
system.iobus.pkt_size_system.ruby.l1_cntrl1.sequencer.mem-master-port::system.ruby.l1_cntrl0.sequencer.pio-slave-port            8                       # Cumulative packet size per connected master and slave (bytes)
system.iobus.pkt_size_system.ruby.l1_cntrl1.sequencer.mem-master-port::system.ruby.l1_cntrl1.sequencer.pio-slave-port          952                       # Cumulative packet size per connected master and slave (bytes)
system.iobus.pkt_size_system.ruby.l1_cntrl1.sequencer.mem-master-port::system.ruby.l1_cntrl2.sequencer.pio-slave-port            8                       # Cumulative packet size per connected master and slave (bytes)
system.iobus.pkt_size_system.ruby.l1_cntrl1.sequencer.mem-master-port::total         1501                       # Cumulative packet size per connected master and slave (bytes)
system.iobus.pkt_size_system.ruby.l1_cntrl2.sequencer.mem-master-port::system.pc.south_bridge.ide.pio          324                       # Cumulative packet size per connected master and slave (bytes)
system.iobus.pkt_size_system.ruby.l1_cntrl2.sequencer.mem-master-port::system.pc.south_bridge.io_apic.pio           28                       # Cumulative packet size per connected master and slave (bytes)
system.iobus.pkt_size_system.ruby.l1_cntrl2.sequencer.mem-master-port::system.pc.com_1.pio           81                       # Cumulative packet size per connected master and slave (bytes)
system.iobus.pkt_size_system.ruby.l1_cntrl2.sequencer.mem-master-port::system.ruby.l1_cntrl1.sequencer.pio-slave-port            4                       # Cumulative packet size per connected master and slave (bytes)
system.iobus.pkt_size_system.ruby.l1_cntrl2.sequencer.mem-master-port::system.ruby.l1_cntrl2.sequencer.pio-slave-port          928                       # Cumulative packet size per connected master and slave (bytes)
system.iobus.pkt_size_system.ruby.l1_cntrl2.sequencer.mem-master-port::system.ruby.l1_cntrl3.sequencer.pio-slave-port            4                       # Cumulative packet size per connected master and slave (bytes)
system.iobus.pkt_size_system.ruby.l1_cntrl2.sequencer.mem-master-port::total         1369                       # Cumulative packet size per connected master and slave (bytes)
system.iobus.pkt_size_system.ruby.l1_cntrl3.sequencer.mem-master-port::system.pc.south_bridge.ide.pio          350                       # Cumulative packet size per connected master and slave (bytes)
system.iobus.pkt_size_system.ruby.l1_cntrl3.sequencer.mem-master-port::system.pc.south_bridge.io_apic.pio           16                       # Cumulative packet size per connected master and slave (bytes)
system.iobus.pkt_size_system.ruby.l1_cntrl3.sequencer.mem-master-port::system.ruby.l1_cntrl0.sequencer.pio-slave-port            4                       # Cumulative packet size per connected master and slave (bytes)
system.iobus.pkt_size_system.ruby.l1_cntrl3.sequencer.mem-master-port::system.ruby.l1_cntrl1.sequencer.pio-slave-port            4                       # Cumulative packet size per connected master and slave (bytes)
system.iobus.pkt_size_system.ruby.l1_cntrl3.sequencer.mem-master-port::system.ruby.l1_cntrl2.sequencer.pio-slave-port            4                       # Cumulative packet size per connected master and slave (bytes)
system.iobus.pkt_size_system.ruby.l1_cntrl3.sequencer.mem-master-port::system.ruby.l1_cntrl3.sequencer.pio-slave-port          936                       # Cumulative packet size per connected master and slave (bytes)
system.iobus.pkt_size_system.ruby.l1_cntrl3.sequencer.mem-master-port::total         1314                       # Cumulative packet size per connected master and slave (bytes)
system.iobus.pkt_size::total                     5758                       # Cumulative packet size per connected master and slave (bytes)
system.iobus.reqLayer2.occupancy              2362000                       # Layer occupancy (ticks)
system.iobus.reqLayer2.utilization                0.0                       # Layer utilization (%)
system.iobus.reqLayer8.occupancy                30996                       # Layer occupancy (ticks)
system.iobus.reqLayer8.utilization                0.0                       # Layer utilization (%)
system.iobus.reqLayer12.occupancy              119500                       # Layer occupancy (ticks)
system.iobus.reqLayer12.utilization               0.0                       # Layer utilization (%)
system.iobus.reqLayer17.occupancy              685266                       # Layer occupancy (ticks)
system.iobus.reqLayer17.utilization               0.0                       # Layer utilization (%)
system.iobus.reqLayer18.occupancy              588984                       # Layer occupancy (ticks)
system.iobus.reqLayer18.utilization               0.0                       # Layer utilization (%)
system.iobus.reqLayer19.occupancy              572985                       # Layer occupancy (ticks)
system.iobus.reqLayer19.utilization               0.0                       # Layer utilization (%)
system.iobus.reqLayer20.occupancy              577481                       # Layer occupancy (ticks)
system.iobus.reqLayer20.utilization               0.0                       # Layer utilization (%)
system.iobus.respLayer0.occupancy              106441                       # Layer occupancy (ticks)
system.iobus.respLayer0.utilization               0.0                       # Layer utilization (%)
system.iobus.respLayer2.occupancy              787000                       # Layer occupancy (ticks)
system.iobus.respLayer2.utilization               0.0                       # Layer utilization (%)
system.iobus.respLayer4.occupancy              979000                       # Layer occupancy (ticks)
system.iobus.respLayer4.utilization               0.0                       # Layer utilization (%)
system.iobus.respLayer6.occupancy              894000                       # Layer occupancy (ticks)
system.iobus.respLayer6.utilization               0.0                       # Layer utilization (%)
system.iobus.respLayer8.occupancy              786000                       # Layer occupancy (ticks)
system.iobus.respLayer8.utilization               0.0                       # Layer utilization (%)
system.pc.south_bridge.ide.disks.dma_read_full_pages          886                       # Number of full page size DMA reads (not PRD).
system.pc.south_bridge.ide.disks.dma_read_bytes      3629056                       # Number of bytes transfered via DMA reads (not PRD).
system.pc.south_bridge.ide.disks.dma_read_txs          886                       # Number of DMA read transactions (not PRD).
system.pc.south_bridge.ide.disks.dma_write_full_pages           37                       # Number of full page size DMA writes.
[...]
system.ruby.DMA_Controller.Ack::total            2496                      
system.ruby.DMA_Controller.READY.ReadRequest |       57292    100.00%    100.00% |           0      0.00%    100.00%
system.ruby.DMA_Controller.READY.ReadRequest::total        57292                      
system.ruby.DMA_Controller.READY.WriteRequest |        2496    100.00%    100.00% |           0      0.00%    100.00%
system.ruby.DMA_Controller.READY.WriteRequest::total         2496                      
system.ruby.DMA_Controller.BUSY_RD.Data  |       57292    100.00%    100.00% |           0      0.00%    100.00%
system.ruby.DMA_Controller.BUSY_RD.Data::total        57292                      
system.ruby.DMA_Controller.BUSY_WR.Ack   |        2496    100.00%    100.00% |           0      0.00%    100.00%
system.ruby.DMA_Controller.BUSY_WR.Ack::total         2496                      
system.ruby.L1Cache_Controller.Load      |    88019950     69.10%     69.10% |      895677      0.70%     69.80% |     1052278      0.83%     70.62% |    37421594     29.38%    100.00%
system.ruby.L1Cache_Controller.Load::total    127389499                      
system.ruby.L1Cache_Controller.Ifetch    |   364086684     71.10%     71.10% |     4984121      0.97%     72.07% |     5748596      1.12%     73.19% |   137293212     26.81%    100.00%
system.ruby.L1Cache_Controller.Ifetch::total    512112613                      
system.ruby.L1Cache_Controller.Store     |    24433146     57.97%     57.97% |      677695      1.61%     59.58% |      808339      1.92%     61.50% |    16227596     38.50%    100.00%
system.ruby.L1Cache_Controller.Store::total     42146776                      
system.ruby.L1Cache_Controller.Inv       |       55305     24.76%     24.76% |       57670     25.81%     50.57% |       59944     26.83%     77.40% |       50482     22.60%    100.00%
system.ruby.L1Cache_Controller.Inv::total       223401                      
system.ruby.L1Cache_Controller.L1_Replacement |     8303663     56.60%     56.60% |       90526      0.62%     57.22% |      101185      0.69%     57.91% |     6174909     42.09%    100.00%
system.ruby.L1Cache_Controller.L1_Replacement::total     14670283                      
system.ruby.L1Cache_Controller.Fwd_GETX  |         434     17.42%     17.42% |         614     24.65%     42.07% |         737     29.59%     71.66% |         706     28.34%    100.00%
system.ruby.L1Cache_Controller.Fwd_GETX::total         2491                      
system.ruby.L1Cache_Controller.Fwd_GETS  |        2746     17.13%     17.13% |        5518     34.42%     51.55% |        3524     21.98%     73.53% |        4244     26.47%    100.00%
system.ruby.L1Cache_Controller.Fwd_GETS::total        16032                      
system.ruby.L1Cache_Controller.Data      |         772     47.42%     47.42% |         222     13.64%     61.06% |         339     20.82%     81.88% |         295     18.12%    100.00%
system.ruby.L1Cache_Controller.Data::total         1628                      
system.ruby.L1Cache_Controller.Data_Exclusive |     5802916     54.47%     54.47% |       42095      0.40%     54.87% |       41970      0.39%     55.26% |     4766186     44.74%    100.00%
system.ruby.L1Cache_Controller.Data_Exclusive::total     10653167                      
system.ruby.L1Cache_Controller.DataS_fromL1 |        3219     20.08%     20.08% |        3402     21.22%     41.30% |        5744     35.83%     77.13% |        3667     22.87%    100.00%
system.ruby.L1Cache_Controller.DataS_fromL1::total        16032                      
system.ruby.L1Cache_Controller.Data_all_Acks |     2538905     60.96%     60.96% |       86877      2.09%     63.05% |      100728      2.42%     65.47% |     1438093     34.53%    100.00%
system.ruby.L1Cache_Controller.Data_all_Acks::total      4164603                      
system.ruby.L1Cache_Controller.Ack       |        7001     50.03%     50.03% |        2074     14.82%     64.84% |        2069     14.78%     79.63% |        2851     20.37%    100.00%
system.ruby.L1Cache_Controller.Ack::total        13995                      
system.ruby.L1Cache_Controller.Ack_all   |        3847     40.02%     40.02% |        1677     17.45%     57.46% |        1774     18.45%     75.92% |        2315     24.08%    100.00%
system.ruby.L1Cache_Controller.Ack_all::total         9613                      
system.ruby.L1Cache_Controller.WB_Ack    |     8182741     56.89%     56.89% |       43525      0.30%     57.20% |       45651      0.32%     57.51% |     6110360     42.49%    100.00%
system.ruby.L1Cache_Controller.WB_Ack::total     14382277                      
system.ruby.L1Cache_Controller.NP.Load   |     5872320     54.72%     54.72% |       38340      0.36%     55.08% |       41635      0.39%     55.47% |     4778428     44.53%    100.00%
system.ruby.L1Cache_Controller.NP.Load::total     10730723                      
system.ruby.L1Cache_Controller.NP.Ifetch |       47855     27.18%     27.18% |       38435     21.83%     49.00% |       44993     25.55%     74.55% |       44811     25.45%    100.00%
system.ruby.L1Cache_Controller.NP.Ifetch::total       176094                      
system.ruby.L1Cache_Controller.NP.Store  |     2383648     63.33%     63.33% |       13751      0.37%     63.70% |       14598      0.39%     64.09% |     1351670     35.91%    100.00%
system.ruby.L1Cache_Controller.NP.Store::total      3763667                      
system.ruby.L1Cache_Controller.NP.Inv    |        8488     22.64%     22.64% |        9650     25.73%     48.37% |        6680     17.81%     66.18% |       12680     33.82%    100.00%
system.ruby.L1Cache_Controller.NP.Inv::total        37498                      
system.ruby.L1Cache_Controller.I.Load    |        5231     13.72%     13.72% |       12225     32.06%     45.78% |       13144     34.47%     80.25% |        7532     19.75%    100.00%
system.ruby.L1Cache_Controller.I.Load::total        38132                      
system.ruby.L1Cache_Controller.I.Ifetch  |       33476     32.11%     32.11% |       22295     21.38%     53.49% |       26684     25.59%     79.08% |       21812     20.92%    100.00%
system.ruby.L1Cache_Controller.I.Ifetch::total       104267                      
system.ruby.L1Cache_Controller.I.Store   |        3282     14.56%     14.56% |        7550     33.49%     48.04% |        7727     34.27%     82.31% |        3988     17.69%    100.00%
system.ruby.L1Cache_Controller.I.Store::total        22547                      
system.ruby.L1Cache_Controller.I.L1_Replacement |        5367     23.19%     23.19% |        6387     27.60%     50.79% |        6403     27.67%     78.46% |        4986     21.54%    100.00%
system.ruby.L1Cache_Controller.I.L1_Replacement::total        23143                      
system.ruby.L1Cache_Controller.S.Load    |     7967636     85.62%     85.62% |       96837      1.04%     86.66% |      121335      1.30%     87.96% |     1120192     12.04%    100.00%
system.ruby.L1Cache_Controller.S.Load::total      9306000                      
system.ruby.L1Cache_Controller.S.Ifetch  |   364005353     71.12%     71.12% |     4923391      0.96%     72.08% |     5676919      1.11%     73.19% |   137226589     26.81%    100.00%
system.ruby.L1Cache_Controller.S.Ifetch::total    511832252                      
system.ruby.L1Cache_Controller.S.Store   |        3075     38.51%     38.51% |        1455     18.22%     56.73% |        1435     17.97%     74.70% |        2020     25.30%    100.00%
system.ruby.L1Cache_Controller.S.Store::total         7985                      
system.ruby.L1Cache_Controller.S.Inv     |       40072     28.78%     28.78% |       32697     23.48%     52.26% |       37495     26.93%     79.19% |       28981     20.81%    100.00%
system.ruby.L1Cache_Controller.S.Inv::total       139245                      
system.ruby.L1Cache_Controller.S.L1_Replacement |      115555     43.63%     43.63% |       40614     15.33%     58.96% |       49131     18.55%     77.51% |       59563     22.49%    100.00%
system.ruby.L1Cache_Controller.S.L1_Replacement::total       264863                      
system.ruby.L1Cache_Controller.E.Load    |    58529967     72.92%     72.92% |      184249      0.23%     73.15% |      248397      0.31%     73.46% |    21301435     26.54%    100.00%
system.ruby.L1Cache_Controller.E.Load::total     80264048                      
system.ruby.L1Cache_Controller.E.Store   |      156132     13.09%     13.09% |       19714      1.65%     14.74% |       14913      1.25%     15.99% |     1002104     84.01%    100.00%
system.ruby.L1Cache_Controller.E.Store::total      1192863                      
system.ruby.L1Cache_Controller.E.Inv     |        2300     14.34%     14.34% |        4870     30.37%     44.72% |        5572     34.75%     79.47% |        3292     20.53%    100.00%
system.ruby.L1Cache_Controller.E.Inv::total        16034                      
system.ruby.L1Cache_Controller.E.L1_Replacement |     5643042     59.82%     59.82% |       13708      0.15%     59.96% |       18947      0.20%     60.16% |     3758064     39.84%    100.00%
system.ruby.L1Cache_Controller.E.L1_Replacement::total      9433761                      
system.ruby.L1Cache_Controller.E.Fwd_GETX |          59      7.17%      7.17% |         140     17.01%     24.18% |         356     43.26%     67.44% |         268     32.56%    100.00%
system.ruby.L1Cache_Controller.E.Fwd_GETX::total          823                      
system.ruby.L1Cache_Controller.E.Fwd_GETS |        1201     12.44%     12.44% |        3676     38.06%     50.50% |        2178     22.55%     73.05% |        2603     26.95%    100.00%
system.ruby.L1Cache_Controller.E.Fwd_GETS::total         9658                      
system.ruby.L1Cache_Controller.M.Load    |    15644796     57.84%     57.84% |      564026      2.09%     59.92% |      627767      2.32%     62.24% |    10214007     37.76%    100.00%
system.ruby.L1Cache_Controller.M.Load::total     27050596                      
system.ruby.L1Cache_Controller.M.Store   |    21887009     58.90%     58.90% |      635225      1.71%     60.61% |      769666      2.07%     62.68% |    13867814     37.32%    100.00%
system.ruby.L1Cache_Controller.M.Store::total     37159714                      
system.ruby.L1Cache_Controller.M.Inv     |        4445     14.51%     14.51% |       10453     34.13%     48.65% |       10197     33.30%     81.95% |        5529     18.05%    100.00%
system.ruby.L1Cache_Controller.M.Inv::total        30624                      
system.ruby.L1Cache_Controller.M.L1_Replacement |     2539699     51.32%     51.32% |       29817      0.60%     51.92% |       26704      0.54%     52.46% |     2352296     47.54%    100.00%
system.ruby.L1Cache_Controller.M.L1_Replacement::total      4948516                      
system.ruby.L1Cache_Controller.M.Fwd_GETX |         375     22.48%     22.48% |         474     28.42%     50.90% |         381     22.84%     73.74% |         438     26.26%    100.00%
system.ruby.L1Cache_Controller.M.Fwd_GETX::total         1668                      
system.ruby.L1Cache_Controller.M.Fwd_GETS |        1545     24.25%     24.25% |        1841     28.90%     53.15% |        1345     21.11%     74.26% |        1640     25.74%    100.00%
system.ruby.L1Cache_Controller.M.Fwd_GETS::total         6371                      
system.ruby.L1Cache_Controller.IS.Data_Exclusive |     5802916     54.47%     54.47% |       42095      0.40%     54.87% |       41970      0.39%     55.26% |     4766186     44.74%    100.00%
system.ruby.L1Cache_Controller.IS.Data_Exclusive::total     10653167                      
system.ruby.L1Cache_Controller.IS.DataS_fromL1 |        3219     20.08%     20.08% |        3402     21.22%     41.30% |        5744     35.83%     77.13% |        3667     22.87%    100.00%
system.ruby.L1Cache_Controller.IS.DataS_fromL1::total        16032                      
system.ruby.L1Cache_Controller.IS.Data_all_Acks |      152747     40.19%     40.19% |       65798     17.31%     57.51% |       78742     20.72%     78.23% |       82730     21.77%    100.00%
system.ruby.L1Cache_Controller.IS.Data_all_Acks::total       380017                      
system.ruby.L1Cache_Controller.IM.Data   |         772     47.42%     47.42% |         222     13.64%     61.06% |         339     20.82%     81.88% |         295     18.12%    100.00%
system.ruby.L1Cache_Controller.IM.Data::total         1628                      
system.ruby.L1Cache_Controller.IM.Data_all_Acks |     2386158     63.05%     63.05% |       21079      0.56%     63.61% |       21986      0.58%     64.19% |     1355363     35.81%    100.00%
system.ruby.L1Cache_Controller.IM.Data_all_Acks::total      3784586                      
system.ruby.L1Cache_Controller.SM.Ack    |        7001     50.03%     50.03% |        2074     14.82%     64.84% |        2069     14.78%     79.63% |        2851     20.37%    100.00%
system.ruby.L1Cache_Controller.SM.Ack::total        13995                      
system.ruby.L1Cache_Controller.SM.Ack_all |        3847     40.02%     40.02% |        1677     17.45%     57.46% |        1774     18.45%     75.92% |        2315     24.08%    100.00%
system.ruby.L1Cache_Controller.SM.Ack_all::total         9613                      
system.ruby.L1Cache_Controller.M_I.Fwd_GETS |           0      0.00%      0.00% |           1     33.33%     33.33% |           1     33.33%     66.67% |           1     33.33%    100.00%
system.ruby.L1Cache_Controller.M_I.Fwd_GETS::total            3                      
system.ruby.L1Cache_Controller.M_I.WB_Ack |     8182741     56.89%     56.89% |       43524      0.30%     57.20% |       45650      0.32%     57.51% |     6110359     42.49%    100.00%
system.ruby.L1Cache_Controller.M_I.WB_Ack::total     14382274                      
system.ruby.L1Cache_Controller.SINK_WB_ACK.WB_Ack |           0      0.00%      0.00% |           1     33.33%     33.33% |           1     33.33%     66.67% |           1     33.33%    100.00%
system.ruby.L1Cache_Controller.SINK_WB_ACK.WB_Ack::total            3                      
system.ruby.L2Cache_Controller.L1_GET_INSTR       280365      0.00%      0.00%
system.ruby.L2Cache_Controller.L1_GETS       10768910      0.00%      0.00%
system.ruby.L2Cache_Controller.L1_GETX        3786222      0.00%      0.00%
system.ruby.L2Cache_Controller.L1_UPGRADE         7985      0.00%      0.00%
system.ruby.L2Cache_Controller.L1_PUTX       14382280      0.00%      0.00%
system.ruby.L2Cache_Controller.L2_Replacement      4061879      0.00%      0.00%
system.ruby.L2Cache_Controller.L2_Replacement_clean      3345917      0.00%      0.00%
system.ruby.L2Cache_Controller.Mem_Data       7414562      0.00%      0.00%
system.ruby.L2Cache_Controller.Mem_Ack        7408125      0.00%      0.00%
system.ruby.L2Cache_Controller.WB_Data          36996      0.00%      0.00%
system.ruby.L2Cache_Controller.WB_Data_clean         9660      0.00%      0.00%
system.ruby.L2Cache_Controller.Ack              86615      0.00%      0.00%
system.ruby.L2Cache_Controller.Ack_all          90539      0.00%      0.00%
system.ruby.L2Cache_Controller.Unblock          16032      0.00%      0.00%
system.ruby.L2Cache_Controller.Exclusive_Unblock     14447366      0.00%      0.00%
system.ruby.L2Cache_Controller.MEM_Inv            658      0.00%      0.00%
system.ruby.L2Cache_Controller.NP.L1_GET_INSTR        70150      0.00%      0.00%
system.ruby.L2Cache_Controller.NP.L1_GETS      4204200      0.00%      0.00%
system.ruby.L2Cache_Controller.NP.L1_GETX      3140212      0.00%      0.00%
system.ruby.L2Cache_Controller.SS.L1_GET_INSTR       210194      0.00%      0.00%
system.ruby.L2Cache_Controller.SS.L1_GETS        99646      0.00%      0.00%
system.ruby.L2Cache_Controller.SS.L1_GETX         1628      0.00%      0.00%
system.ruby.L2Cache_Controller.SS.L1_UPGRADE         7985      0.00%      0.00%
system.ruby.L2Cache_Controller.SS.L1_PUTX            3      0.00%      0.00%
system.ruby.L2Cache_Controller.SS.L2_Replacement         1315      0.00%      0.00%
system.ruby.L2Cache_Controller.SS.L2_Replacement_clean        73132      0.00%      0.00%
system.ruby.L2Cache_Controller.SS.MEM_Inv           58      0.00%      0.00%
system.ruby.L2Cache_Controller.M.L1_GET_INSTR           17      0.00%      0.00%
system.ruby.L2Cache_Controller.M.L1_GETS      6448972      0.00%      0.00%
system.ruby.L2Cache_Controller.M.L1_GETX       641883      0.00%      0.00%
system.ruby.L2Cache_Controller.M.L2_Replacement      4058508      0.00%      0.00%
system.ruby.L2Cache_Controller.M.L2_Replacement_clean      3228267      0.00%      0.00%
system.ruby.L2Cache_Controller.M.MEM_Inv          187      0.00%      0.00%
system.ruby.L2Cache_Controller.MT.L1_GETS        16032      0.00%      0.00%
system.ruby.L2Cache_Controller.MT.L1_GETX         2491      0.00%      0.00%
system.ruby.L2Cache_Controller.MT.L1_PUTX     14382274      0.00%      0.00%
system.ruby.L2Cache_Controller.MT.L2_Replacement         2056      0.00%      0.00%
system.ruby.L2Cache_Controller.MT.L2_Replacement_clean        44518      0.00%      0.00%
system.ruby.L2Cache_Controller.MT.MEM_Inv           84      0.00%      0.00%
system.ruby.L2Cache_Controller.M_I.L1_GET_INSTR            4      0.00%      0.00%
system.ruby.L2Cache_Controller.M_I.L1_GETS            2      0.00%      0.00%
system.ruby.L2Cache_Controller.M_I.L1_GETX            3      0.00%      0.00%
system.ruby.L2Cache_Controller.M_I.Mem_Ack      7408125      0.00%      0.00%
system.ruby.L2Cache_Controller.M_I.MEM_Inv          187      0.00%      0.00%
system.ruby.L2Cache_Controller.MT_I.WB_Data         1810      0.00%      0.00%
system.ruby.L2Cache_Controller.MT_I.Ack_all          330      0.00%      0.00%
system.ruby.L2Cache_Controller.MT_I.MEM_Inv           84      0.00%      0.00%
system.ruby.L2Cache_Controller.MCT_I.WB_Data        28814      0.00%      0.00%
system.ruby.L2Cache_Controller.MCT_I.Ack_all        15704      0.00%      0.00%
system.ruby.L2Cache_Controller.I_I.Ack          85007      0.00%      0.00%
system.ruby.L2Cache_Controller.I_I.Ack_all        73132      0.00%      0.00%
system.ruby.L2Cache_Controller.S_I.Ack           1608      0.00%      0.00%
system.ruby.L2Cache_Controller.S_I.Ack_all         1373      0.00%      0.00%
system.ruby.L2Cache_Controller.S_I.MEM_Inv           58      0.00%      0.00%
system.ruby.L2Cache_Controller.ISS.L1_GETS            5      0.00%      0.00%
system.ruby.L2Cache_Controller.ISS.Mem_Data      4204195      0.00%      0.00%
system.ruby.L2Cache_Controller.IS.Mem_Data        70155      0.00%      0.00%
system.ruby.L2Cache_Controller.IM.Mem_Data      3140212      0.00%      0.00%
system.ruby.L2Cache_Controller.SS_MB.L1_GETS           33      0.00%      0.00%
system.ruby.L2Cache_Controller.SS_MB.Exclusive_Unblock         9613      0.00%      0.00%
system.ruby.L2Cache_Controller.MT_MB.L1_GETS           15      0.00%      0.00%
system.ruby.L2Cache_Controller.MT_MB.L1_GETX            3      0.00%      0.00%
system.ruby.L2Cache_Controller.MT_MB.Exclusive_Unblock     14437753      0.00%      0.00%
system.ruby.L2Cache_Controller.MT_IIB.L1_GETS            5      0.00%      0.00%
system.ruby.L2Cache_Controller.MT_IIB.L1_GETX            2      0.00%      0.00%
system.ruby.L2Cache_Controller.MT_IIB.L1_PUTX            3      0.00%      0.00%
system.ruby.L2Cache_Controller.MT_IIB.WB_Data         6356      0.00%      0.00%
system.ruby.L2Cache_Controller.MT_IIB.WB_Data_clean         9620      0.00%      0.00%
system.ruby.L2Cache_Controller.MT_IIB.Unblock           56      0.00%      0.00%
system.ruby.L2Cache_Controller.MT_IB.WB_Data           16      0.00%      0.00%
system.ruby.L2Cache_Controller.MT_IB.WB_Data_clean           40      0.00%      0.00%
system.ruby.L2Cache_Controller.MT_SB.Unblock        15976      0.00%      0.00%

---------- End Simulation Statistics   ----------
