
---------- Begin Simulation Statistics ----------
sim_seconds                                  4.394955                       # Number of seconds simulated
sim_ticks                                4394954762500                       # Number of ticks simulated
final_tick                               59980594661501                       # Number of ticks from beginning of simulation (restored from checkpoints and never reset)
sim_freq                                 1000000000000                       # Frequency of simulated ticks
host_inst_rate                                 116287                       # Simulator instruction rate (inst/s)
host_op_rate                                   195037                       # Simulator op (including micro ops) rate (op/s)
host_tick_rate                              332431989                       # Simulator tick rate (ticks/s)
host_mem_usage                                2148108                       # Number of bytes of host memory used
host_seconds                                 13220.61                       # Real time elapsed on the host
sim_insts                                  1537390073                       # Number of instructions simulated
sim_ops                                    2578507468                       # Number of ops (including micro ops) simulated
system.voltage_domain.voltage                       1                       # Voltage in Volts
system.clk_domain.clock                          1000                       # Clock period in ticks
system.mem_ctrls.bytes_read::ruby.dir_cntrl0    850650848                       # Number of bytes read from this memory
system.mem_ctrls.bytes_read::total          850650848                       # Number of bytes read from this memory
system.mem_ctrls.bytes_written::ruby.dir_cntrl0    844557888                       # Number of bytes written to this memory
system.mem_ctrls.bytes_written::total       844557888                       # Number of bytes written to this memory
system.mem_ctrls.num_reads::ruby.dir_cntrl0     26582839                       # Number of read requests responded to by this memory
system.mem_ctrls.num_reads::total            26582839                       # Number of read requests responded to by this memory
system.mem_ctrls.num_writes::ruby.dir_cntrl0     26392434                       # Number of write requests responded to by this memory
system.mem_ctrls.num_writes::total           26392434                       # Number of write requests responded to by this memory
system.mem_ctrls.bw_read::ruby.dir_cntrl0    193551673                       # Total read bandwidth from this memory (bytes/s)
system.mem_ctrls.bw_read::total             193551673                       # Total read bandwidth from this memory (bytes/s)
system.mem_ctrls.bw_write::ruby.dir_cntrl0    192165320                       # Write bandwidth from this memory (bytes/s)
system.mem_ctrls.bw_write::total            192165320                       # Write bandwidth from this memory (bytes/s)
system.mem_ctrls.bw_total::ruby.dir_cntrl0    385716993                       # Total bandwidth to/from this memory (bytes/s)
system.mem_ctrls.bw_total::total            385716993                       # Total bandwidth to/from this memory (bytes/s)
system.mem_ctrls.readReqs                    26582839                       # Number of read requests accepted
system.mem_ctrls.writeReqs                   26392434                       # Number of write requests accepted
system.mem_ctrls.readBursts                  26582839                       # Number of DRAM read bursts, including those serviced by the write queue
system.mem_ctrls.writeBursts                 26392434                       # Number of DRAM write bursts, including those merged in the write queue
system.mem_ctrls.bytesReadDRAM             1482250688                       # Total number of bytes read from DRAM
system.mem_ctrls.bytesReadWrQ               219051008                       # Total number of bytes read from write queue
system.mem_ctrls.bytesWritten              1387337408                       # Total number of bytes written to DRAM
system.mem_ctrls.bytesReadSys               850650848                       # Total read bytes from the system interface side
system.mem_ctrls.bytesWrittenSys            844557888                       # Total written bytes from the system interface side
system.mem_ctrls.servicedByWrQ                3422672                       # Number of DRAM read bursts serviced by the write queue
system.mem_ctrls.mergedWrBursts               4715285                       # Number of DRAM write bursts merged with an existing one
system.mem_ctrls.neitherReadNorWriteReqs            0                       # Number of requests that are neither read nor write
system.mem_ctrls.perBankRdBursts::0            900160                       # Per bank write bursts
system.mem_ctrls.perBankRdBursts::1           1645124                       # Per bank write bursts
system.mem_ctrls.perBankRdBursts::2            953308                       # Per bank write bursts
system.mem_ctrls.perBankRdBursts::3           1524492                       # Per bank write bursts
system.mem_ctrls.perBankRdBursts::4           1067610                       # Per bank write bursts
system.mem_ctrls.perBankRdBursts::5           7022883                       # Per bank write bursts
system.mem_ctrls.perBankRdBursts::6            900133                       # Per bank write bursts
system.mem_ctrls.perBankRdBursts::7            618184                       # Per bank write bursts
system.mem_ctrls.perBankRdBursts::8            631392                       # Per bank write bursts
system.mem_ctrls.perBankRdBursts::9           4143562                       # Per bank write bursts
system.mem_ctrls.perBankRdBursts::10           983853                       # Per bank write bursts
system.mem_ctrls.perBankRdBursts::11           558874                       # Per bank write bursts
system.mem_ctrls.perBankRdBursts::12           524700                       # Per bank write bursts
system.mem_ctrls.perBankRdBursts::13           593064                       # Per bank write bursts
system.mem_ctrls.perBankRdBursts::14           524554                       # Per bank write bursts
system.mem_ctrls.perBankRdBursts::15           568274                       # Per bank write bursts
system.mem_ctrls.perBankWrBursts::0            805094                       # Per bank write bursts
system.mem_ctrls.perBankWrBursts::1           1498831                       # Per bank write bursts
system.mem_ctrls.perBankWrBursts::2            983822                       # Per bank write bursts
system.mem_ctrls.perBankWrBursts::3           1442903                       # Per bank write bursts
system.mem_ctrls.perBankWrBursts::4           1003736                       # Per bank write bursts
system.mem_ctrls.perBankWrBursts::5           6513743                       # Per bank write bursts
system.mem_ctrls.perBankWrBursts::6            840310                       # Per bank write bursts
system.mem_ctrls.perBankWrBursts::7            587063                       # Per bank write bursts
system.mem_ctrls.perBankWrBursts::8            580473                       # Per bank write bursts
system.mem_ctrls.perBankWrBursts::9           3916148                       # Per bank write bursts
system.mem_ctrls.perBankWrBursts::10           969615                       # Per bank write bursts
system.mem_ctrls.perBankWrBursts::11           496123                       # Per bank write bursts
system.mem_ctrls.perBankWrBursts::12           497091                       # Per bank write bursts
system.mem_ctrls.perBankWrBursts::13           553880                       # Per bank write bursts
system.mem_ctrls.perBankWrBursts::14           479821                       # Per bank write bursts
system.mem_ctrls.perBankWrBursts::15           508494                       # Per bank write bursts
system.mem_ctrls.numRdRetry                         0                       # Number of times read queue was full causing retry
system.mem_ctrls.numWrRetry                         0                       # Number of times write queue was full causing retry
system.mem_ctrls.totGap                  4394954765500                       # Total gap between requests
system.mem_ctrls.readPktSize::0                     0                       # Read request sizes (log2)
system.mem_ctrls.readPktSize::1                     0                       # Read request sizes (log2)
system.mem_ctrls.readPktSize::2                     0                       # Read request sizes (log2)
system.mem_ctrls.readPktSize::3                     0                       # Read request sizes (log2)
system.mem_ctrls.readPktSize::4                     0                       # Read request sizes (log2)
system.mem_ctrls.readPktSize::5              26582839                       # Read request sizes (log2)
system.mem_ctrls.readPktSize::6                     0                       # Read request sizes (log2)
system.mem_ctrls.writePktSize::0                    0                       # Write request sizes (log2)
system.mem_ctrls.writePktSize::1                    0                       # Write request sizes (log2)
system.mem_ctrls.writePktSize::2                    0                       # Write request sizes (log2)
system.mem_ctrls.writePktSize::3                    0                       # Write request sizes (log2)
system.mem_ctrls.writePktSize::4                    0                       # Write request sizes (log2)
system.mem_ctrls.writePktSize::5             26392434                       # Write request sizes (log2)
system.mem_ctrls.writePktSize::6                    0                       # Write request sizes (log2)
system.mem_ctrls.rdQLenPdf::0                22976150                       # What read queue length does an incoming req see
system.mem_ctrls.rdQLenPdf::1                  180503                       # What read queue length does an incoming req see
system.mem_ctrls.rdQLenPdf::2                    3506                       # What read queue length does an incoming req see
system.mem_ctrls.rdQLenPdf::3                       8                       # What read queue length does an incoming req see
system.mem_ctrls.rdQLenPdf::4                       0                       # What read queue length does an incoming req see
system.mem_ctrls.rdQLenPdf::5                       0                       # What read queue length does an incoming req see
system.mem_ctrls.rdQLenPdf::6                       0                       # What read queue length does an incoming req see
system.mem_ctrls.rdQLenPdf::7                       0                       # What read queue length does an incoming req see
system.mem_ctrls.rdQLenPdf::8                       0                       # What read queue length does an incoming req see
system.mem_ctrls.rdQLenPdf::9                       0                       # What read queue length does an incoming req see
system.mem_ctrls.rdQLenPdf::10                      0                       # What read queue length does an incoming req see
system.mem_ctrls.rdQLenPdf::11                      0                       # What read queue length does an incoming req see
system.mem_ctrls.rdQLenPdf::12                      0                       # What read queue length does an incoming req see
system.mem_ctrls.rdQLenPdf::13                      0                       # What read queue length does an incoming req see
system.mem_ctrls.rdQLenPdf::14                      0                       # What read queue length does an incoming req see
system.mem_ctrls.rdQLenPdf::15                      0                       # What read queue length does an incoming req see
system.mem_ctrls.rdQLenPdf::16                      0                       # What read queue length does an incoming req see
system.mem_ctrls.rdQLenPdf::17                      0                       # What read queue length does an incoming req see
system.mem_ctrls.rdQLenPdf::18                      0                       # What read queue length does an incoming req see
system.mem_ctrls.rdQLenPdf::19                      0                       # What read queue length does an incoming req see
system.mem_ctrls.rdQLenPdf::20                      0                       # What read queue length does an incoming req see
system.mem_ctrls.rdQLenPdf::21                      0                       # What read queue length does an incoming req see
system.mem_ctrls.rdQLenPdf::22                      0                       # What read queue length does an incoming req see
system.mem_ctrls.rdQLenPdf::23                      0                       # What read queue length does an incoming req see
system.mem_ctrls.rdQLenPdf::24                      0                       # What read queue length does an incoming req see
system.mem_ctrls.rdQLenPdf::25                      0                       # What read queue length does an incoming req see
system.mem_ctrls.rdQLenPdf::26                      0                       # What read queue length does an incoming req see
system.mem_ctrls.rdQLenPdf::27                      0                       # What read queue length does an incoming req see
system.mem_ctrls.rdQLenPdf::28                      0                       # What read queue length does an incoming req see
system.mem_ctrls.rdQLenPdf::29                      0                       # What read queue length does an incoming req see
system.mem_ctrls.rdQLenPdf::30                      0                       # What read queue length does an incoming req see
system.mem_ctrls.rdQLenPdf::31                      0                       # What read queue length does an incoming req see
system.mem_ctrls.wrQLenPdf::0                       0                       # What write queue length does an incoming req see
system.mem_ctrls.wrQLenPdf::1                       0                       # What write queue length does an incoming req see
system.mem_ctrls.wrQLenPdf::2                       0                       # What write queue length does an incoming req see
system.mem_ctrls.wrQLenPdf::3                       0                       # What write queue length does an incoming req see
system.mem_ctrls.wrQLenPdf::4                       0                       # What write queue length does an incoming req see
system.mem_ctrls.wrQLenPdf::5                       0                       # What write queue length does an incoming req see
system.mem_ctrls.wrQLenPdf::6                       0                       # What write queue length does an incoming req see
system.mem_ctrls.wrQLenPdf::7                       0                       # What write queue length does an incoming req see
system.mem_ctrls.wrQLenPdf::8                       0                       # What write queue length does an incoming req see
system.mem_ctrls.wrQLenPdf::9                       0                       # What write queue length does an incoming req see
system.mem_ctrls.wrQLenPdf::10                      0                       # What write queue length does an incoming req see
system.mem_ctrls.wrQLenPdf::11                      0                       # What write queue length does an incoming req see
system.mem_ctrls.wrQLenPdf::12                      0                       # What write queue length does an incoming req see
system.mem_ctrls.wrQLenPdf::13                      0                       # What write queue length does an incoming req see
system.mem_ctrls.wrQLenPdf::14                      0                       # What write queue length does an incoming req see
system.mem_ctrls.wrQLenPdf::15                  94854                       # What write queue length does an incoming req see
system.mem_ctrls.wrQLenPdf::16                 106972                       # What write queue length does an incoming req see
system.mem_ctrls.wrQLenPdf::17                1282246                       # What write queue length does an incoming req see
system.mem_ctrls.wrQLenPdf::18                1343445                       # What write queue length does an incoming req see
system.mem_ctrls.wrQLenPdf::19                1350974                       # What write queue length does an incoming req see
system.mem_ctrls.wrQLenPdf::20                1349953                       # What write queue length does an incoming req see
system.mem_ctrls.wrQLenPdf::21                1352940                       # What write queue length does an incoming req see
system.mem_ctrls.wrQLenPdf::22                1354243                       # What write queue length does an incoming req see
system.mem_ctrls.wrQLenPdf::23                1356294                       # What write queue length does an incoming req see
system.mem_ctrls.wrQLenPdf::24                1348064                       # What write queue length does an incoming req see
system.mem_ctrls.wrQLenPdf::25                1346076                       # What write queue length does an incoming req see
system.mem_ctrls.wrQLenPdf::26                1343458                       # What write queue length does an incoming req see
system.mem_ctrls.wrQLenPdf::27                1341626                       # What write queue length does an incoming req see
system.mem_ctrls.wrQLenPdf::28                1340995                       # What write queue length does an incoming req see
system.mem_ctrls.wrQLenPdf::29                1340670                       # What write queue length does an incoming req see
system.mem_ctrls.wrQLenPdf::30                1340329                       # What write queue length does an incoming req see
system.mem_ctrls.wrQLenPdf::31                1340191                       # What write queue length does an incoming req see
system.mem_ctrls.wrQLenPdf::32                1340150                       # What write queue length does an incoming req see
system.mem_ctrls.wrQLenPdf::33                   2771                       # What write queue length does an incoming req see
system.mem_ctrls.wrQLenPdf::34                    620                       # What write queue length does an incoming req see
system.mem_ctrls.wrQLenPdf::35                    193                       # What write queue length does an incoming req see
system.mem_ctrls.wrQLenPdf::36                     52                       # What write queue length does an incoming req see
system.mem_ctrls.wrQLenPdf::37                     16                       # What write queue length does an incoming req see
system.mem_ctrls.wrQLenPdf::38                      7                       # What write queue length does an incoming req see
system.mem_ctrls.wrQLenPdf::39                      4                       # What write queue length does an incoming req see
system.mem_ctrls.wrQLenPdf::40                      1                       # What write queue length does an incoming req see
system.mem_ctrls.wrQLenPdf::41                      1                       # What write queue length does an incoming req see
system.mem_ctrls.wrQLenPdf::42                      1                       # What write queue length does an incoming req see
system.mem_ctrls.wrQLenPdf::43                      1                       # What write queue length does an incoming req see
system.mem_ctrls.wrQLenPdf::44                      1                       # What write queue length does an incoming req see
system.mem_ctrls.wrQLenPdf::45                      1                       # What write queue length does an incoming req see
system.mem_ctrls.wrQLenPdf::46                      0                       # What write queue length does an incoming req see
system.mem_ctrls.wrQLenPdf::47                      0                       # What write queue length does an incoming req see
system.mem_ctrls.wrQLenPdf::48                      0                       # What write queue length does an incoming req see
system.mem_ctrls.wrQLenPdf::49                      0                       # What write queue length does an incoming req see
system.mem_ctrls.wrQLenPdf::50                      0                       # What write queue length does an incoming req see
system.mem_ctrls.wrQLenPdf::51                      0                       # What write queue length does an incoming req see
system.mem_ctrls.wrQLenPdf::52                      0                       # What write queue length does an incoming req see
system.mem_ctrls.wrQLenPdf::53                      0                       # What write queue length does an incoming req see
system.mem_ctrls.wrQLenPdf::54                      0                       # What write queue length does an incoming req see
system.mem_ctrls.wrQLenPdf::55                      0                       # What write queue length does an incoming req see
system.mem_ctrls.wrQLenPdf::56                      0                       # What write queue length does an incoming req see
system.mem_ctrls.wrQLenPdf::57                      0                       # What write queue length does an incoming req see
system.mem_ctrls.wrQLenPdf::58                      0                       # What write queue length does an incoming req see
system.mem_ctrls.wrQLenPdf::59                      0                       # What write queue length does an incoming req see
system.mem_ctrls.wrQLenPdf::60                      0                       # What write queue length does an incoming req see
system.mem_ctrls.wrQLenPdf::61                      0                       # What write queue length does an incoming req see
system.mem_ctrls.wrQLenPdf::62                      0                       # What write queue length does an incoming req see
system.mem_ctrls.wrQLenPdf::63                      0                       # What write queue length does an incoming req see
system.mem_ctrls.bytesPerActivate::samples     15632678                       # Bytes accessed per row activation
system.mem_ctrls.bytesPerActivate::mean    183.563396                       # Bytes accessed per row activation
system.mem_ctrls.bytesPerActivate::gmean   128.839659                       # Bytes accessed per row activation
system.mem_ctrls.bytesPerActivate::stdev   191.098501                       # Bytes accessed per row activation
system.mem_ctrls.bytesPerActivate::0-127      7057607     45.15%     45.15% # Bytes accessed per row activation
system.mem_ctrls.bytesPerActivate::128-255      4867303     31.14%     76.28% # Bytes accessed per row activation
system.mem_ctrls.bytesPerActivate::256-383      1691247     10.82%     87.10% # Bytes accessed per row activation
system.mem_ctrls.bytesPerActivate::384-511       784659      5.02%     92.12% # Bytes accessed per row activation
system.mem_ctrls.bytesPerActivate::512-639       443662      2.84%     94.96% # Bytes accessed per row activation
system.mem_ctrls.bytesPerActivate::640-767       282560      1.81%     96.77% # Bytes accessed per row activation
system.mem_ctrls.bytesPerActivate::768-895       187167      1.20%     97.96% # Bytes accessed per row activation
system.mem_ctrls.bytesPerActivate::896-1023       118381      0.76%     98.72% # Bytes accessed per row activation
system.mem_ctrls.bytesPerActivate::1024-1151       200092      1.28%    100.00% # Bytes accessed per row activation
system.mem_ctrls.bytesPerActivate::total     15632678                       # Bytes accessed per row activation
system.mem_ctrls.rdPerTurnAround::samples      1340129                       # Reads before turning the bus around for writes
system.mem_ctrls.rdPerTurnAround::mean      17.282042                       # Reads before turning the bus around for writes
system.mem_ctrls.rdPerTurnAround::stdev      5.877487                       # Reads before turning the bus around for writes
system.mem_ctrls.rdPerTurnAround::0-31        1330580     99.29%     99.29% # Reads before turning the bus around for writes
system.mem_ctrls.rdPerTurnAround::32-63          7197      0.54%     99.82% # Reads before turning the bus around for writes
system.mem_ctrls.rdPerTurnAround::64-95          1590      0.12%     99.94% # Reads before turning the bus around for writes
system.mem_ctrls.rdPerTurnAround::96-127          360      0.03%     99.97% # Reads before turning the bus around for writes
system.mem_ctrls.rdPerTurnAround::128-159          142      0.01%     99.98% # Reads before turning the bus around for writes
system.mem_ctrls.rdPerTurnAround::160-191           81      0.01%     99.99% # Reads before turning the bus around for writes
system.mem_ctrls.rdPerTurnAround::192-223           53      0.00%     99.99% # Reads before turning the bus around for writes
system.mem_ctrls.rdPerTurnAround::224-255           45      0.00%     99.99% # Reads before turning the bus around for writes
system.mem_ctrls.rdPerTurnAround::256-287           22      0.00%    100.00% # Reads before turning the bus around for writes
system.mem_ctrls.rdPerTurnAround::288-319           14      0.00%    100.00% # Reads before turning the bus around for writes
system.mem_ctrls.rdPerTurnAround::320-351           10      0.00%    100.00% # Reads before turning the bus around for writes
system.mem_ctrls.rdPerTurnAround::352-383            4      0.00%    100.00% # Reads before turning the bus around for writes
system.mem_ctrls.rdPerTurnAround::384-415           10      0.00%    100.00% # Reads before turning the bus around for writes
system.mem_ctrls.rdPerTurnAround::416-447            6      0.00%    100.00% # Reads before turning the bus around for writes
system.mem_ctrls.rdPerTurnAround::448-479            1      0.00%    100.00% # Reads before turning the bus around for writes
system.mem_ctrls.rdPerTurnAround::480-511            4      0.00%    100.00% # Reads before turning the bus around for writes
system.mem_ctrls.rdPerTurnAround::512-543            5      0.00%    100.00% # Reads before turning the bus around for writes
system.mem_ctrls.rdPerTurnAround::576-607            2      0.00%    100.00% # Reads before turning the bus around for writes
system.mem_ctrls.rdPerTurnAround::608-639            1      0.00%    100.00% # Reads before turning the bus around for writes
system.mem_ctrls.rdPerTurnAround::768-799            1      0.00%    100.00% # Reads before turning the bus around for writes
system.mem_ctrls.rdPerTurnAround::928-959            1      0.00%    100.00% # Reads before turning the bus around for writes
system.mem_ctrls.rdPerTurnAround::total       1340129                       # Reads before turning the bus around for writes
system.mem_ctrls.wrPerTurnAround::samples      1340129                       # Writes before turning the bus around for reads
system.mem_ctrls.wrPerTurnAround::mean      16.175418                       # Writes before turning the bus around for reads
system.mem_ctrls.wrPerTurnAround::gmean     16.164571                       # Writes before turning the bus around for reads
system.mem_ctrls.wrPerTurnAround::stdev      0.618632                       # Writes before turning the bus around for reads
system.mem_ctrls.wrPerTurnAround::16          1232132     91.94%     91.94% # Writes before turning the bus around for reads
system.mem_ctrls.wrPerTurnAround::17             6741      0.50%     92.44% # Writes before turning the bus around for reads
system.mem_ctrls.wrPerTurnAround::18            80712      6.02%     98.47% # Writes before turning the bus around for reads
system.mem_ctrls.wrPerTurnAround::19            16062      1.20%     99.67% # Writes before turning the bus around for reads
system.mem_ctrls.wrPerTurnAround::20             3902      0.29%     99.96% # Writes before turning the bus around for reads
system.mem_ctrls.wrPerTurnAround::21              474      0.04%     99.99% # Writes before turning the bus around for reads
system.mem_ctrls.wrPerTurnAround::22               59      0.00%    100.00% # Writes before turning the bus around for reads
system.mem_ctrls.wrPerTurnAround::23               17      0.00%    100.00% # Writes before turning the bus around for reads
system.mem_ctrls.wrPerTurnAround::24               13      0.00%    100.00% # Writes before turning the bus around for reads
system.mem_ctrls.wrPerTurnAround::25                7      0.00%    100.00% # Writes before turning the bus around for reads
system.mem_ctrls.wrPerTurnAround::26                5      0.00%    100.00% # Writes before turning the bus around for reads
system.mem_ctrls.wrPerTurnAround::27                1      0.00%    100.00% # Writes before turning the bus around for reads
system.mem_ctrls.wrPerTurnAround::28                1      0.00%    100.00% # Writes before turning the bus around for reads
system.mem_ctrls.wrPerTurnAround::29                2      0.00%    100.00% # Writes before turning the bus around for reads
system.mem_ctrls.wrPerTurnAround::31                1      0.00%    100.00% # Writes before turning the bus around for reads
system.mem_ctrls.wrPerTurnAround::total       1340129                       # Writes before turning the bus around for reads
system.mem_ctrls.totQLat                 366357195831                       # Total ticks spent queuing
system.mem_ctrls.totMemAccLat            800610327081                       # Total ticks spent from burst creation until serviced by the DRAM
system.mem_ctrls.totBusLat               115800835000                       # Total ticks spent in databus transfers
system.mem_ctrls.avgQLat                     15818.42                       # Average queueing delay per DRAM burst
system.mem_ctrls.avgBusLat                    5000.00                       # Average bus latency per DRAM burst
system.mem_ctrls.avgMemAccLat                34568.42                       # Average memory access latency per DRAM burst
system.mem_ctrls.avgRdBW                       337.26                       # Average DRAM read bandwidth in MiByte/s
system.mem_ctrls.avgWrBW                       315.67                       # Average achieved write bandwidth in MiByte/s
system.mem_ctrls.avgRdBWSys                    193.55                       # Average system read bandwidth in MiByte/s
system.mem_ctrls.avgWrBWSys                    192.17                       # Average system write bandwidth in MiByte/s
system.mem_ctrls.peakBW                      12800.00                       # Theoretical peak bandwidth in MiByte/s
system.mem_ctrls.busUtil                         5.10                       # Data bus utilization in percentage
system.mem_ctrls.busUtilRead                     2.63                       # Data bus utilization in percentage for reads
system.mem_ctrls.busUtilWrite                    2.47                       # Data bus utilization in percentage for writes
system.mem_ctrls.avgRdQLen                       1.00                       # Average read queue length when enqueuing
system.mem_ctrls.avgWrQLen                      25.77                       # Average write queue length when enqueuing
system.mem_ctrls.readRowHits                 15269338                       # Number of row buffer hits during reads
system.mem_ctrls.writeRowHits                13935293                       # Number of row buffer hits during writes
system.mem_ctrls.readRowHitRate                 65.93                       # Row buffer hit rate for reads
system.mem_ctrls.writeRowHitRate                64.29                       # Row buffer hit rate for writes
system.mem_ctrls.avgGap                      82962.38                       # Average gap between requests
system.mem_ctrls.pageHitRate                    65.13                       # Row buffer hit rate, read and write combined
system.mem_ctrls_0.actEnergy              74395359360                       # Energy for activate commands per rank (pJ)
system.mem_ctrls_0.preEnergy              40592706000                       # Energy for precharge commands per rank (pJ)
system.mem_ctrls_0.readEnergy            114468166800                       # Energy for read commands per rank (pJ)
system.mem_ctrls_0.writeEnergy            88835000400                       # Energy for write commands per rank (pJ)
system.mem_ctrls_0.refreshEnergy         287524567200                       # Energy for refresh commands per rank (pJ)
system.mem_ctrls_0.actBackEnergy         2702404486710                       # Energy for active background per rank (pJ)
system.mem_ctrls_0.preBackEnergy         270737220750                       # Energy for precharge background per rank (pJ)
system.mem_ctrls_0.totalEnergy           3578957507220                       # Total energy per rank (pJ)
system.mem_ctrls_0.averagePower            813.009105                       # Core power per rank (mW)
system.mem_ctrls_0.memoryStateTime::IDLE 432631313253                       # Time in different power states
system.mem_ctrls_0.memoryStateTime::REF  146757000000                       # Time in different power states
system.mem_ctrls_0.memoryStateTime::PRE_PDN            0                       # Time in different power states
system.mem_ctrls_0.memoryStateTime::ACT  3815560530997                       # Time in different power states
system.mem_ctrls_0.memoryStateTime::ACT_PDN            0                       # Time in different power states
system.mem_ctrls_1.actEnergy              44115858360                       # Energy for activate commands per rank (pJ)
system.mem_ctrls_1.preEnergy              24071152875                       # Energy for precharge commands per rank (pJ)
system.mem_ctrls_1.readEnergy             66759583800                       # Energy for read commands per rank (pJ)
system.mem_ctrls_1.writeEnergy            52000075440                       # Energy for write commands per rank (pJ)
system.mem_ctrls_1.refreshEnergy         287524567200                       # Energy for refresh commands per rank (pJ)
system.mem_ctrls_1.actBackEnergy         2520778598010                       # Energy for active background per rank (pJ)
system.mem_ctrls_1.preBackEnergy         430058157000                       # Energy for precharge background per rank (pJ)
system.mem_ctrls_1.totalEnergy           3425307992685                       # Total energy per rank (pJ)
system.mem_ctrls_1.averagePower            778.105524                       # Core power per rank (mW)
system.mem_ctrls_1.memoryStateTime::IDLE 697027719253                       # Time in different power states
system.mem_ctrls_1.memoryStateTime::REF  146757000000                       # Time in different power states
system.mem_ctrls_1.memoryStateTime::PRE_PDN            0                       # Time in different power states
system.mem_ctrls_1.memoryStateTime::ACT  3551164378747                       # Time in different power states
system.mem_ctrls_1.memoryStateTime::ACT_PDN            0                       # Time in different power states
system.cpu_voltage_domain.voltage                   1                       # Voltage in Volts
system.cpu_clk_domain.clock                       500                       # Clock period in ticks
system.cpu0.apic_clk_domain.clock                8000                       # Clock period in ticks
system.cpu0.numCycles                      8788971493                       # number of cpu cycles simulated
system.cpu0.numWorkItemsStarted                     0                       # number of work items this cpu started
system.cpu0.numWorkItemsCompleted                   0                       # number of work items this cpu completed
system.cpu0.kern.inst.arm                           0                       # number of arm instructions executed
system.cpu0.kern.inst.quiesce                       0                       # number of quiesce instructions executed
system.cpu0.committedInsts                    5014283                       # Number of instructions committed
system.cpu0.committedOps                     10548395                       # Number of ops (including micro ops) committed
system.cpu0.num_int_alu_accesses             10347057                       # Number of integer alu accesses
system.cpu0.num_fp_alu_accesses                  1778                       # Number of float alu accesses
system.cpu0.num_func_calls                     283048                       # number of times a function call or return occured
system.cpu0.num_conditional_control_insts       813979                       # number of instructions that are conditional controls
system.cpu0.num_int_insts                    10347057                       # number of integer instructions
system.cpu0.num_fp_insts                         1778                       # number of float instructions
system.cpu0.num_int_register_reads           20666578                       # number of times the integer registers were read
system.cpu0.num_int_register_writes           8508471                       # number of times the integer registers were written
system.cpu0.num_fp_register_reads                2988                       # number of times the floating registers were read
system.cpu0.num_fp_register_writes               1416                       # number of times the floating registers were written
system.cpu0.num_cc_register_reads             6311907                       # number of times the CC registers were read
system.cpu0.num_cc_register_writes            3356129                       # number of times the CC registers were written
system.cpu0.num_mem_refs                      2344306                       # number of memory refs
system.cpu0.num_load_insts                    1455267                       # Number of load instructions
system.cpu0.num_store_insts                    889039                       # Number of store instructions
system.cpu0.num_idle_cycles              8741220643.417086                       # Number of idle cycles
system.cpu0.num_busy_cycles              47750849.582915                       # Number of busy cycles
system.cpu0.not_idle_fraction                0.005433                       # Percentage of non-idle cycles
system.cpu0.idle_fraction                    0.994567                       # Percentage of idle cycles
system.cpu0.Branches                          1181778                       # Number of branches fetched
system.cpu0.op_class::No_OpClass               149571      1.42%      1.42% # Class of executed instruction
system.cpu0.op_class::IntAlu                  7987433     75.72%     77.14% # Class of executed instruction
system.cpu0.op_class::IntMult                   16801      0.16%     77.30% # Class of executed instruction
system.cpu0.op_class::IntDiv                    49030      0.46%     77.76% # Class of executed instruction
system.cpu0.op_class::FloatAdd                   1344      0.01%     77.78% # Class of executed instruction
system.cpu0.op_class::FloatCmp                      0      0.00%     77.78% # Class of executed instruction
system.cpu0.op_class::FloatCvt                      0      0.00%     77.78% # Class of executed instruction
system.cpu0.op_class::FloatMult                     0      0.00%     77.78% # Class of executed instruction
system.cpu0.op_class::FloatDiv                      0      0.00%     77.78% # Class of executed instruction
system.cpu0.op_class::FloatSqrt                     0      0.00%     77.78% # Class of executed instruction
system.cpu0.op_class::SimdAdd                       0      0.00%     77.78% # Class of executed instruction
system.cpu0.op_class::SimdAddAcc                    0      0.00%     77.78% # Class of executed instruction
system.cpu0.op_class::SimdAlu                       0      0.00%     77.78% # Class of executed instruction
system.cpu0.op_class::SimdCmp                       0      0.00%     77.78% # Class of executed instruction
system.cpu0.op_class::SimdCvt                       0      0.00%     77.78% # Class of executed instruction
system.cpu0.op_class::SimdMisc                      0      0.00%     77.78% # Class of executed instruction
system.cpu0.op_class::SimdMult                      0      0.00%     77.78% # Class of executed instruction
system.cpu0.op_class::SimdMultAcc                   0      0.00%     77.78% # Class of executed instruction
system.cpu0.op_class::SimdShift                     0      0.00%     77.78% # Class of executed instruction
system.cpu0.op_class::SimdShiftAcc                  0      0.00%     77.78% # Class of executed instruction
system.cpu0.op_class::SimdSqrt                      0      0.00%     77.78% # Class of executed instruction
system.cpu0.op_class::SimdFloatAdd                  0      0.00%     77.78% # Class of executed instruction
system.cpu0.op_class::SimdFloatAlu                  0      0.00%     77.78% # Class of executed instruction
system.cpu0.op_class::SimdFloatCmp                  0      0.00%     77.78% # Class of executed instruction
system.cpu0.op_class::SimdFloatCvt                  0      0.00%     77.78% # Class of executed instruction
system.cpu0.op_class::SimdFloatDiv                  0      0.00%     77.78% # Class of executed instruction
system.cpu0.op_class::SimdFloatMisc                 0      0.00%     77.78% # Class of executed instruction
system.cpu0.op_class::SimdFloatMult                 0      0.00%     77.78% # Class of executed instruction
system.cpu0.op_class::SimdFloatMultAcc              0      0.00%     77.78% # Class of executed instruction
system.cpu0.op_class::SimdFloatSqrt                 0      0.00%     77.78% # Class of executed instruction
system.cpu0.op_class::MemRead                 1455267     13.80%     91.57% # Class of executed instruction
system.cpu0.op_class::MemWrite                 889039      8.43%    100.00% # Class of executed instruction
system.cpu0.op_class::IprAccess                     0      0.00%    100.00% # Class of executed instruction
system.cpu0.op_class::InstPrefetch                  0      0.00%    100.00% # Class of executed instruction
system.cpu0.op_class::total                  10548485                       # Class of executed instruction
system.cpu1.apic_clk_domain.clock                8000                       # Clock period in ticks
system.cpu1.numCycles                      8791736687                       # number of cpu cycles simulated
system.cpu1.numWorkItemsStarted                     0                       # number of work items this cpu started
system.cpu1.numWorkItemsCompleted                   0                       # number of work items this cpu completed
system.cpu1.kern.inst.arm                           0                       # number of arm instructions executed
system.cpu1.kern.inst.quiesce                       0                       # number of quiesce instructions executed
system.cpu1.committedInsts                    5424514                       # Number of instructions committed
system.cpu1.committedOps                     11246885                       # Number of ops (including micro ops) committed
system.cpu1.num_int_alu_accesses             11033331                       # Number of integer alu accesses
system.cpu1.num_fp_alu_accesses                    50                       # Number of float alu accesses
system.cpu1.num_func_calls                     276198                       # number of times a function call or return occured
system.cpu1.num_conditional_control_insts       933430                       # number of instructions that are conditional controls
system.cpu1.num_int_insts                    11033331                       # number of integer instructions
system.cpu1.num_fp_insts                           50                       # number of float instructions
system.cpu1.num_int_register_reads           21793315                       # number of times the integer registers were read
system.cpu1.num_int_register_writes           9089991                       # number of times the integer registers were written
system.cpu1.num_fp_register_reads                  78                       # number of times the floating registers were read
system.cpu1.num_fp_register_writes                 38                       # number of times the floating registers were written
system.cpu1.num_cc_register_reads             7015178                       # number of times the CC registers were read
system.cpu1.num_cc_register_writes            3661492                       # number of times the CC registers were written
system.cpu1.num_mem_refs                      2391603                       # number of memory refs
system.cpu1.num_load_insts                    1522268                       # Number of load instructions
system.cpu1.num_store_insts                    869335                       # Number of store instructions
system.cpu1.num_idle_cycles              8744116136.196377                       # Number of idle cycles
system.cpu1.num_busy_cycles              47620550.803623                       # Number of busy cycles
system.cpu1.not_idle_fraction                0.005417                       # Percentage of non-idle cycles
system.cpu1.idle_fraction                    0.994583                       # Percentage of idle cycles
system.cpu1.Branches                          1298750                       # Number of branches fetched
system.cpu1.op_class::No_OpClass               148576      1.32%      1.32% # Class of executed instruction
system.cpu1.op_class::IntAlu                  8640893     76.83%     78.15% # Class of executed instruction
system.cpu1.op_class::IntMult                   21125      0.19%     78.34% # Class of executed instruction
system.cpu1.op_class::IntDiv                    44680      0.40%     78.74% # Class of executed instruction
system.cpu1.op_class::FloatAdd                     32      0.00%     78.74% # Class of executed instruction
system.cpu1.op_class::FloatCmp                      0      0.00%     78.74% # Class of executed instruction
system.cpu1.op_class::FloatCvt                      0      0.00%     78.74% # Class of executed instruction
system.cpu1.op_class::FloatMult                     0      0.00%     78.74% # Class of executed instruction
system.cpu1.op_class::FloatDiv                      0      0.00%     78.74% # Class of executed instruction
system.cpu1.op_class::FloatSqrt                     0      0.00%     78.74% # Class of executed instruction
system.cpu1.op_class::SimdAdd                       0      0.00%     78.74% # Class of executed instruction
system.cpu1.op_class::SimdAddAcc                    0      0.00%     78.74% # Class of executed instruction
system.cpu1.op_class::SimdAlu                       0      0.00%     78.74% # Class of executed instruction
system.cpu1.op_class::SimdCmp                       0      0.00%     78.74% # Class of executed instruction
system.cpu1.op_class::SimdCvt                       0      0.00%     78.74% # Class of executed instruction
system.cpu1.op_class::SimdMisc                      0      0.00%     78.74% # Class of executed instruction
system.cpu1.op_class::SimdMult                      0      0.00%     78.74% # Class of executed instruction
system.cpu1.op_class::SimdMultAcc                   0      0.00%     78.74% # Class of executed instruction
system.cpu1.op_class::SimdShift                     0      0.00%     78.74% # Class of executed instruction
system.cpu1.op_class::SimdShiftAcc                  0      0.00%     78.74% # Class of executed instruction
system.cpu1.op_class::SimdSqrt                      0      0.00%     78.74% # Class of executed instruction
system.cpu1.op_class::SimdFloatAdd                  0      0.00%     78.74% # Class of executed instruction
system.cpu1.op_class::SimdFloatAlu                  0      0.00%     78.74% # Class of executed instruction
system.cpu1.op_class::SimdFloatCmp                  0      0.00%     78.74% # Class of executed instruction
system.cpu1.op_class::SimdFloatCvt                  0      0.00%     78.74% # Class of executed instruction
system.cpu1.op_class::SimdFloatDiv                  0      0.00%     78.74% # Class of executed instruction
system.cpu1.op_class::SimdFloatMisc                 0      0.00%     78.74% # Class of executed instruction
system.cpu1.op_class::SimdFloatMult                 0      0.00%     78.74% # Class of executed instruction
system.cpu1.op_class::SimdFloatMultAcc              0      0.00%     78.74% # Class of executed instruction
system.cpu1.op_class::SimdFloatSqrt                 0      0.00%     78.74% # Class of executed instruction
system.cpu1.op_class::MemRead                 1522268     13.53%     92.27% # Class of executed instruction
system.cpu1.op_class::MemWrite                 869335      7.73%    100.00% # Class of executed instruction
system.cpu1.op_class::IprAccess                     0      0.00%    100.00% # Class of executed instruction
system.cpu1.op_class::InstPrefetch                  0      0.00%    100.00% # Class of executed instruction
system.cpu1.op_class::total                  11246909                       # Class of executed instruction
system.cpu2.apic_clk_domain.clock                8000                       # Clock period in ticks
system.cpu2.numCycles                      8793944910                       # number of cpu cycles simulated
system.cpu2.numWorkItemsStarted                     0                       # number of work items this cpu started
system.cpu2.numWorkItemsCompleted                   0                       # number of work items this cpu completed
system.cpu2.kern.inst.arm                           0                       # number of arm instructions executed
system.cpu2.kern.inst.quiesce                       0                       # number of quiesce instructions executed
system.cpu2.committedInsts                 1521717812                       # Number of instructions committed
system.cpu2.committedOps                   2545957386                       # Number of ops (including micro ops) committed
system.cpu2.num_int_alu_accesses           1950448812                       # Number of integer alu accesses
system.cpu2.num_fp_alu_accesses             965601779                       # Number of float alu accesses
system.cpu2.num_func_calls                   35483321                       # number of times a function call or return occured
system.cpu2.num_conditional_control_insts    171674288                       # number of instructions that are conditional controls
system.cpu2.num_int_insts                  1950448812                       # number of integer instructions
system.cpu2.num_fp_insts                    965601779                       # number of float instructions
system.cpu2.num_int_register_reads         4131669345                       # number of times the integer registers were read
system.cpu2.num_int_register_writes        1330246562                       # number of times the integer registers were written
system.cpu2.num_fp_register_reads          1529965740                       # number of times the floating registers were read
system.cpu2.num_fp_register_writes          790021462                       # number of times the floating registers were written
system.cpu2.num_cc_register_reads          1447659936                       # number of times the CC registers were read
system.cpu2.num_cc_register_writes          550381981                       # number of times the CC registers were written
system.cpu2.num_mem_refs                    645017439                       # number of memory refs
system.cpu2.num_load_insts                  478520486                       # Number of load instructions
system.cpu2.num_store_insts                 166496953                       # Number of store instructions
system.cpu2.num_idle_cycles              8737516.491000                       # Number of idle cycles
system.cpu2.num_busy_cycles              8785207393.509001                       # Number of busy cycles
system.cpu2.not_idle_fraction                0.999006                       # Percentage of non-idle cycles
system.cpu2.idle_fraction                    0.000994                       # Percentage of idle cycles
system.cpu2.Branches                        231546707                       # Number of branches fetched
system.cpu2.op_class::No_OpClass              3387757      0.13%      0.13% # Class of executed instruction
system.cpu2.op_class::IntAlu               1474043913     57.90%     58.03% # Class of executed instruction
system.cpu2.op_class::IntMult                 4736478      0.19%     58.22% # Class of executed instruction
system.cpu2.op_class::IntDiv                 19610788      0.77%     58.99% # Class of executed instruction
system.cpu2.op_class::FloatAdd              398093031     15.64%     74.62% # Class of executed instruction
system.cpu2.op_class::FloatCmp                      0      0.00%     74.62% # Class of executed instruction
system.cpu2.op_class::FloatCvt                      0      0.00%     74.62% # Class of executed instruction
system.cpu2.op_class::FloatMult                     0      0.00%     74.62% # Class of executed instruction
system.cpu2.op_class::FloatDiv                1068156      0.04%     74.67% # Class of executed instruction
system.cpu2.op_class::FloatSqrt                     0      0.00%     74.67% # Class of executed instruction
system.cpu2.op_class::SimdAdd                       0      0.00%     74.67% # Class of executed instruction
system.cpu2.op_class::SimdAddAcc                    0      0.00%     74.67% # Class of executed instruction
system.cpu2.op_class::SimdAlu                       0      0.00%     74.67% # Class of executed instruction
system.cpu2.op_class::SimdCmp                       0      0.00%     74.67% # Class of executed instruction
system.cpu2.op_class::SimdCvt                       0      0.00%     74.67% # Class of executed instruction
system.cpu2.op_class::SimdMisc                      0      0.00%     74.67% # Class of executed instruction
system.cpu2.op_class::SimdMult                      0      0.00%     74.67% # Class of executed instruction
system.cpu2.op_class::SimdMultAcc                   0      0.00%     74.67% # Class of executed instruction
system.cpu2.op_class::SimdShift                     0      0.00%     74.67% # Class of executed instruction
system.cpu2.op_class::SimdShiftAcc                  0      0.00%     74.67% # Class of executed instruction
system.cpu2.op_class::SimdSqrt                      0      0.00%     74.67% # Class of executed instruction
system.cpu2.op_class::SimdFloatAdd                  0      0.00%     74.67% # Class of executed instruction
system.cpu2.op_class::SimdFloatAlu                  0      0.00%     74.67% # Class of executed instruction
system.cpu2.op_class::SimdFloatCmp                  0      0.00%     74.67% # Class of executed instruction
system.cpu2.op_class::SimdFloatCvt                  0      0.00%     74.67% # Class of executed instruction
system.cpu2.op_class::SimdFloatDiv                  0      0.00%     74.67% # Class of executed instruction
system.cpu2.op_class::SimdFloatMisc                 0      0.00%     74.67% # Class of executed instruction
system.cpu2.op_class::SimdFloatMult                 0      0.00%     74.67% # Class of executed instruction
system.cpu2.op_class::SimdFloatMultAcc              0      0.00%     74.67% # Class of executed instruction
system.cpu2.op_class::SimdFloatSqrt                 0      0.00%     74.67% # Class of executed instruction
system.cpu2.op_class::MemRead               478520486     18.80%     93.46% # Class of executed instruction
system.cpu2.op_class::MemWrite              166496953      6.54%    100.00% # Class of executed instruction
system.cpu2.op_class::IprAccess                     0      0.00%    100.00% # Class of executed instruction
system.cpu2.op_class::InstPrefetch                  0      0.00%    100.00% # Class of executed instruction
system.cpu2.op_class::total                2545957562                       # Class of executed instruction
system.cpu3.apic_clk_domain.clock                8000                       # Clock period in ticks
system.cpu3.numCycles                      8791232634                       # number of cpu cycles simulated
system.cpu3.numWorkItemsStarted                     0                       # number of work items this cpu started
system.cpu3.numWorkItemsCompleted                   0                       # number of work items this cpu completed
system.cpu3.kern.inst.arm                           0                       # number of arm instructions executed
system.cpu3.kern.inst.quiesce                       0                       # number of quiesce instructions executed
system.cpu3.committedInsts                    3668471                       # Number of instructions committed
system.cpu3.committedOps                      7837337                       # Number of ops (including micro ops) committed
system.cpu3.num_int_alu_accesses              7675611                       # Number of integer alu accesses
system.cpu3.num_fp_alu_accesses                     0                       # Number of float alu accesses
system.cpu3.num_func_calls                     208062                       # number of times a function call or return occured
system.cpu3.num_conditional_control_insts       610410                       # number of instructions that are conditional controls
system.cpu3.num_int_insts                     7675611                       # number of integer instructions
system.cpu3.num_fp_insts                            0                       # number of float instructions
system.cpu3.num_int_register_reads           15329801                       # number of times the integer registers were read
system.cpu3.num_int_register_writes           6348941                       # number of times the integer registers were written
system.cpu3.num_fp_register_reads                   0                       # number of times the floating registers were read
system.cpu3.num_fp_register_writes                  0                       # number of times the floating registers were written
system.cpu3.num_cc_register_reads             4725376                       # number of times the CC registers were read
system.cpu3.num_cc_register_writes            2415100                       # number of times the CC registers were written
system.cpu3.num_mem_refs                      1760426                       # number of memory refs
system.cpu3.num_load_insts                    1099413                       # Number of load instructions
system.cpu3.num_store_insts                    661013                       # Number of store instructions
system.cpu3.num_idle_cycles              8744280444.591352                       # Number of idle cycles
system.cpu3.num_busy_cycles              46952189.408647                       # Number of busy cycles
system.cpu3.not_idle_fraction                0.005341                       # Percentage of non-idle cycles
system.cpu3.idle_fraction                    0.994659                       # Percentage of idle cycles
system.cpu3.Branches                           884116                       # Number of branches fetched
system.cpu3.op_class::No_OpClass               134266      1.71%      1.71% # Class of executed instruction
system.cpu3.op_class::IntAlu                  5880179     75.03%     76.74% # Class of executed instruction
system.cpu3.op_class::IntMult                   14701      0.19%     76.93% # Class of executed instruction
system.cpu3.op_class::IntDiv                    47768      0.61%     77.54% # Class of executed instruction
system.cpu3.op_class::FloatAdd                      0      0.00%     77.54% # Class of executed instruction
system.cpu3.op_class::FloatCmp                      0      0.00%     77.54% # Class of executed instruction
system.cpu3.op_class::FloatCvt                      0      0.00%     77.54% # Class of executed instruction
system.cpu3.op_class::FloatMult                     0      0.00%     77.54% # Class of executed instruction
system.cpu3.op_class::FloatDiv                      0      0.00%     77.54% # Class of executed instruction
system.cpu3.op_class::FloatSqrt                     0      0.00%     77.54% # Class of executed instruction
system.cpu3.op_class::SimdAdd                       0      0.00%     77.54% # Class of executed instruction
system.cpu3.op_class::SimdAddAcc                    0      0.00%     77.54% # Class of executed instruction
system.cpu3.op_class::SimdAlu                       0      0.00%     77.54% # Class of executed instruction
system.cpu3.op_class::SimdCmp                       0      0.00%     77.54% # Class of executed instruction
system.cpu3.op_class::SimdCvt                       0      0.00%     77.54% # Class of executed instruction
system.cpu3.op_class::SimdMisc                      0      0.00%     77.54% # Class of executed instruction
system.cpu3.op_class::SimdMult                      0      0.00%     77.54% # Class of executed instruction
system.cpu3.op_class::SimdMultAcc                   0      0.00%     77.54% # Class of executed instruction
system.cpu3.op_class::SimdShift                     0      0.00%     77.54% # Class of executed instruction
system.cpu3.op_class::SimdShiftAcc                  0      0.00%     77.54% # Class of executed instruction
system.cpu3.op_class::SimdSqrt                      0      0.00%     77.54% # Class of executed instruction
system.cpu3.op_class::SimdFloatAdd                  0      0.00%     77.54% # Class of executed instruction
system.cpu3.op_class::SimdFloatAlu                  0      0.00%     77.54% # Class of executed instruction
system.cpu3.op_class::SimdFloatCmp                  0      0.00%     77.54% # Class of executed instruction
system.cpu3.op_class::SimdFloatCvt                  0      0.00%     77.54% # Class of executed instruction
system.cpu3.op_class::SimdFloatDiv                  0      0.00%     77.54% # Class of executed instruction
system.cpu3.op_class::SimdFloatMisc                 0      0.00%     77.54% # Class of executed instruction
system.cpu3.op_class::SimdFloatMult                 0      0.00%     77.54% # Class of executed instruction
system.cpu3.op_class::SimdFloatMultAcc              0      0.00%     77.54% # Class of executed instruction
system.cpu3.op_class::SimdFloatSqrt                 0      0.00%     77.54% # Class of executed instruction
system.cpu3.op_class::MemRead                 1099413     14.03%     91.57% # Class of executed instruction
system.cpu3.op_class::MemWrite                 661013      8.43%    100.00% # Class of executed instruction
system.cpu3.op_class::IprAccess                     0      0.00%    100.00% # Class of executed instruction
system.cpu3.op_class::InstPrefetch                  0      0.00%    100.00% # Class of executed instruction
system.cpu3.op_class::total                   7837340                       # Class of executed instruction
system.iobus.trans_dist::ReadReq                  873                       # Transaction distribution
system.iobus.trans_dist::ReadResp                 873                       # Transaction distribution
system.iobus.trans_dist::WriteReq                6042                       # Transaction distribution
system.iobus.trans_dist::WriteResp               6042                       # Transaction distribution
system.iobus.trans_dist::MessageReq               112                       # Transaction distribution
system.iobus.trans_dist::MessageResp              112                       # Transaction distribution
system.iobus.pkt_count_system.pc.south_bridge.io_apic.int_master::system.ruby.l1_cntrl0.sequencer.pio-slave-port           50                       # Packet count per connected master and slave (bytes)
system.iobus.pkt_count_system.pc.south_bridge.io_apic.int_master::system.ruby.l1_cntrl1.sequencer.pio-slave-port           52                       # Packet count per connected master and slave (bytes)
system.iobus.pkt_count_system.pc.south_bridge.io_apic.int_master::system.ruby.l1_cntrl2.sequencer.pio-slave-port           52                       # Packet count per connected master and slave (bytes)
system.iobus.pkt_count_system.pc.south_bridge.io_apic.int_master::system.ruby.l1_cntrl3.sequencer.pio-slave-port           52                       # Packet count per connected master and slave (bytes)
system.iobus.pkt_count_system.pc.south_bridge.io_apic.int_master::total          206                       # Packet count per connected master and slave (bytes)
system.iobus.pkt_count_system.ruby.l1_cntrl0.sequencer.mem-master-port::system.pc.south_bridge.ide.pio         1070                       # Packet count per connected master and slave (bytes)
system.iobus.pkt_count_system.ruby.l1_cntrl0.sequencer.mem-master-port::system.pc.south_bridge.io_apic.pio            6                       # Packet count per connected master and slave (bytes)
system.iobus.pkt_count_system.ruby.l1_cntrl0.sequencer.mem-master-port::system.pc.com_1.pio          174                       # Packet count per connected master and slave (bytes)
system.iobus.pkt_count_system.ruby.l1_cntrl0.sequencer.mem-master-port::system.ruby.l1_cntrl0.sequencer.pio-slave-port         2268                       # Packet count per connected master and slave (bytes)
system.iobus.pkt_count_system.ruby.l1_cntrl0.sequencer.mem-master-port::system.ruby.l1_cntrl1.sequencer.pio-slave-port            2                       # Packet count per connected master and slave (bytes)
system.iobus.pkt_count_system.ruby.l1_cntrl0.sequencer.mem-master-port::system.ruby.l1_cntrl2.sequencer.pio-slave-port            2                       # Packet count per connected master and slave (bytes)
system.iobus.pkt_count_system.ruby.l1_cntrl0.sequencer.mem-master-port::system.ruby.l1_cntrl3.sequencer.pio-slave-port            2                       # Packet count per connected master and slave (bytes)
system.iobus.pkt_count_system.ruby.l1_cntrl0.sequencer.mem-master-port::total         3524                       # Packet count per connected master and slave (bytes)
system.iobus.pkt_count_system.ruby.l1_cntrl1.sequencer.mem-master-port::system.pc.south_bridge.ide.pio         1524                       # Packet count per connected master and slave (bytes)
system.iobus.pkt_count_system.ruby.l1_cntrl1.sequencer.mem-master-port::system.pc.south_bridge.io_apic.pio            8                       # Packet count per connected master and slave (bytes)
system.iobus.pkt_count_system.ruby.l1_cntrl1.sequencer.mem-master-port::system.pc.com_1.pio            2                       # Packet count per connected master and slave (bytes)
system.iobus.pkt_count_system.ruby.l1_cntrl1.sequencer.mem-master-port::system.ruby.l1_cntrl1.sequencer.pio-slave-port         2264                       # Packet count per connected master and slave (bytes)
system.iobus.pkt_count_system.ruby.l1_cntrl1.sequencer.mem-master-port::system.ruby.l1_cntrl2.sequencer.pio-slave-port            2                       # Packet count per connected master and slave (bytes)
system.iobus.pkt_count_system.ruby.l1_cntrl1.sequencer.mem-master-port::total         3800                       # Packet count per connected master and slave (bytes)
system.iobus.pkt_count_system.ruby.l1_cntrl2.sequencer.mem-master-port::system.pc.south_bridge.ide.pio         1048                       # Packet count per connected master and slave (bytes)
system.iobus.pkt_count_system.ruby.l1_cntrl2.sequencer.mem-master-port::system.pc.south_bridge.io_apic.pio            8                       # Packet count per connected master and slave (bytes)
system.iobus.pkt_count_system.ruby.l1_cntrl2.sequencer.mem-master-port::system.ruby.l1_cntrl1.sequencer.pio-slave-port            6                       # Packet count per connected master and slave (bytes)
system.iobus.pkt_count_system.ruby.l1_cntrl2.sequencer.mem-master-port::system.ruby.l1_cntrl2.sequencer.pio-slave-port         2278                       # Packet count per connected master and slave (bytes)
system.iobus.pkt_count_system.ruby.l1_cntrl2.sequencer.mem-master-port::system.ruby.l1_cntrl3.sequencer.pio-slave-port            2                       # Packet count per connected master and slave (bytes)
system.iobus.pkt_count_system.ruby.l1_cntrl2.sequencer.mem-master-port::total         3342                       # Packet count per connected master and slave (bytes)
system.iobus.pkt_count_system.ruby.l1_cntrl3.sequencer.mem-master-port::system.pc.south_bridge.ide.pio          912                       # Packet count per connected master and slave (bytes)
system.iobus.pkt_count_system.ruby.l1_cntrl3.sequencer.mem-master-port::system.pc.south_bridge.io_apic.pio            8                       # Packet count per connected master and slave (bytes)
system.iobus.pkt_count_system.ruby.l1_cntrl3.sequencer.mem-master-port::system.ruby.l1_cntrl0.sequencer.pio-slave-port            2                       # Packet count per connected master and slave (bytes)
system.iobus.pkt_count_system.ruby.l1_cntrl3.sequencer.mem-master-port::system.ruby.l1_cntrl3.sequencer.pio-slave-port         2260                       # Packet count per connected master and slave (bytes)
system.iobus.pkt_count_system.ruby.l1_cntrl3.sequencer.mem-master-port::total         3182                       # Packet count per connected master and slave (bytes)
system.iobus.pkt_count::total                   14054                       # Packet count per connected master and slave (bytes)
system.iobus.pkt_size_system.pc.south_bridge.io_apic.int_master::system.ruby.l1_cntrl0.sequencer.pio-slave-port          100                       # Cumulative packet size per connected master and slave (bytes)
system.iobus.pkt_size_system.pc.south_bridge.io_apic.int_master::system.ruby.l1_cntrl1.sequencer.pio-slave-port          104                       # Cumulative packet size per connected master and slave (bytes)
system.iobus.pkt_size_system.pc.south_bridge.io_apic.int_master::system.ruby.l1_cntrl2.sequencer.pio-slave-port          104                       # Cumulative packet size per connected master and slave (bytes)
system.iobus.pkt_size_system.pc.south_bridge.io_apic.int_master::system.ruby.l1_cntrl3.sequencer.pio-slave-port          104                       # Cumulative packet size per connected master and slave (bytes)
system.iobus.pkt_size_system.pc.south_bridge.io_apic.int_master::total          412                       # Cumulative packet size per connected master and slave (bytes)
system.iobus.pkt_size_system.ruby.l1_cntrl0.sequencer.mem-master-port::system.pc.south_bridge.ide.pio          604                       # Cumulative packet size per connected master and slave (bytes)
system.iobus.pkt_size_system.ruby.l1_cntrl0.sequencer.mem-master-port::system.pc.south_bridge.io_apic.pio           12                       # Cumulative packet size per connected master and slave (bytes)
system.iobus.pkt_size_system.ruby.l1_cntrl0.sequencer.mem-master-port::system.pc.com_1.pio           87                       # Cumulative packet size per connected master and slave (bytes)
system.iobus.pkt_size_system.ruby.l1_cntrl0.sequencer.mem-master-port::system.ruby.l1_cntrl0.sequencer.pio-slave-port         4536                       # Cumulative packet size per connected master and slave (bytes)
system.iobus.pkt_size_system.ruby.l1_cntrl0.sequencer.mem-master-port::system.ruby.l1_cntrl1.sequencer.pio-slave-port            4                       # Cumulative packet size per connected master and slave (bytes)
system.iobus.pkt_size_system.ruby.l1_cntrl0.sequencer.mem-master-port::system.ruby.l1_cntrl2.sequencer.pio-slave-port            4                       # Cumulative packet size per connected master and slave (bytes)
system.iobus.pkt_size_system.ruby.l1_cntrl0.sequencer.mem-master-port::system.ruby.l1_cntrl3.sequencer.pio-slave-port            4                       # Cumulative packet size per connected master and slave (bytes)
system.iobus.pkt_size_system.ruby.l1_cntrl0.sequencer.mem-master-port::total         5251                       # Cumulative packet size per connected master and slave (bytes)
system.iobus.pkt_size_system.ruby.l1_cntrl1.sequencer.mem-master-port::system.pc.south_bridge.ide.pio          870                       # Cumulative packet size per connected master and slave (bytes)
system.iobus.pkt_size_system.ruby.l1_cntrl1.sequencer.mem-master-port::system.pc.south_bridge.io_apic.pio           16                       # Cumulative packet size per connected master and slave (bytes)
system.iobus.pkt_size_system.ruby.l1_cntrl1.sequencer.mem-master-port::system.pc.com_1.pio            1                       # Cumulative packet size per connected master and slave (bytes)
system.iobus.pkt_size_system.ruby.l1_cntrl1.sequencer.mem-master-port::system.ruby.l1_cntrl1.sequencer.pio-slave-port         4528                       # Cumulative packet size per connected master and slave (bytes)
system.iobus.pkt_size_system.ruby.l1_cntrl1.sequencer.mem-master-port::system.ruby.l1_cntrl2.sequencer.pio-slave-port            4                       # Cumulative packet size per connected master and slave (bytes)
system.iobus.pkt_size_system.ruby.l1_cntrl1.sequencer.mem-master-port::total         5419                       # Cumulative packet size per connected master and slave (bytes)
system.iobus.pkt_size_system.ruby.l1_cntrl2.sequencer.mem-master-port::system.pc.south_bridge.ide.pio          590                       # Cumulative packet size per connected master and slave (bytes)
system.iobus.pkt_size_system.ruby.l1_cntrl2.sequencer.mem-master-port::system.pc.south_bridge.io_apic.pio           16                       # Cumulative packet size per connected master and slave (bytes)
system.iobus.pkt_size_system.ruby.l1_cntrl2.sequencer.mem-master-port::system.ruby.l1_cntrl1.sequencer.pio-slave-port           12                       # Cumulative packet size per connected master and slave (bytes)
system.iobus.pkt_size_system.ruby.l1_cntrl2.sequencer.mem-master-port::system.ruby.l1_cntrl2.sequencer.pio-slave-port         4556                       # Cumulative packet size per connected master and slave (bytes)
system.iobus.pkt_size_system.ruby.l1_cntrl2.sequencer.mem-master-port::system.ruby.l1_cntrl3.sequencer.pio-slave-port            4                       # Cumulative packet size per connected master and slave (bytes)
system.iobus.pkt_size_system.ruby.l1_cntrl2.sequencer.mem-master-port::total         5178                       # Cumulative packet size per connected master and slave (bytes)
system.iobus.pkt_size_system.ruby.l1_cntrl3.sequencer.mem-master-port::system.pc.south_bridge.ide.pio          510                       # Cumulative packet size per connected master and slave (bytes)
system.iobus.pkt_size_system.ruby.l1_cntrl3.sequencer.mem-master-port::system.pc.south_bridge.io_apic.pio           16                       # Cumulative packet size per connected master and slave (bytes)
system.iobus.pkt_size_system.ruby.l1_cntrl3.sequencer.mem-master-port::system.ruby.l1_cntrl0.sequencer.pio-slave-port            4                       # Cumulative packet size per connected master and slave (bytes)
system.iobus.pkt_size_system.ruby.l1_cntrl3.sequencer.mem-master-port::system.ruby.l1_cntrl3.sequencer.pio-slave-port         4520                       # Cumulative packet size per connected master and slave (bytes)
system.iobus.pkt_size_system.ruby.l1_cntrl3.sequencer.mem-master-port::total         5050                       # Cumulative packet size per connected master and slave (bytes)
system.iobus.pkt_size::total                    21310                       # Cumulative packet size per connected master and slave (bytes)
system.iobus.reqLayer2.occupancy              4026500                       # Layer occupancy (ticks)
system.iobus.reqLayer2.utilization                0.0                       # Layer utilization (%)
system.iobus.reqLayer8.occupancy                27496                       # Layer occupancy (ticks)
system.iobus.reqLayer8.utilization                0.0                       # Layer utilization (%)
system.iobus.reqLayer12.occupancy              112500                       # Layer occupancy (ticks)
system.iobus.reqLayer12.utilization               0.0                       # Layer utilization (%)
system.iobus.reqLayer17.occupancy             2446974                       # Layer occupancy (ticks)
system.iobus.reqLayer17.utilization               0.0                       # Layer utilization (%)
system.iobus.reqLayer18.occupancy             2835975                       # Layer occupancy (ticks)
system.iobus.reqLayer18.utilization               0.0                       # Layer utilization (%)
system.iobus.reqLayer19.occupancy             3170399                       # Layer occupancy (ticks)
system.iobus.reqLayer19.utilization               0.0                       # Layer utilization (%)
system.iobus.reqLayer20.occupancy             2610475                       # Layer occupancy (ticks)
system.iobus.reqLayer20.utilization               0.0                       # Layer utilization (%)
system.iobus.respLayer0.occupancy              176401                       # Layer occupancy (ticks)
system.iobus.respLayer0.utilization               0.0                       # Layer utilization (%)
system.iobus.respLayer2.occupancy             2586500                       # Layer occupancy (ticks)
system.iobus.respLayer2.utilization               0.0                       # Layer utilization (%)
system.iobus.respLayer4.occupancy             2713500                       # Layer occupancy (ticks)
system.iobus.respLayer4.utilization               0.0                       # Layer utilization (%)
system.iobus.respLayer6.occupancy             2436000                       # Layer occupancy (ticks)
system.iobus.respLayer6.utilization               0.0                       # Layer utilization (%)
system.iobus.respLayer8.occupancy             2331000                       # Layer occupancy (ticks)
system.iobus.respLayer8.utilization               0.0                       # Layer utilization (%)
system.pc.south_bridge.ide.disks.dma_read_full_pages         1523                       # Number of full page size DMA reads (not PRD).
system.pc.south_bridge.ide.disks.dma_read_bytes      6238208                       # Number of bytes transfered via DMA reads (not PRD).
system.pc.south_bridge.ide.disks.dma_read_txs         1523                       # Number of DMA read transactions (not PRD).
system.pc.south_bridge.ide.disks.dma_write_full_pages           45                       # Number of full page size DMA writes.
system.pc.south_bridge.ide.disks.dma_write_bytes       184320                       # Number of bytes transfered via DMA writes.
system.pc.south_bridge.ide.disks.dma_write_txs           45                       # Number of DMA write transactions.
system.ruby.clk_domain.clock                      500                       # Clock period in ticks
system.ruby.delayHist::bucket_size                  2                       # delay histogram for all message
system.ruby.delayHist::max_bucket                  19                       # delay histogram for all message
system.ruby.delayHist::samples               55306930                       # delay histogram for all message
system.ruby.delayHist::mean                  0.002877                       # delay histogram for all message
system.ruby.delayHist::stdev                 0.114613                       # delay histogram for all message
[...]
system.ruby.LD.Directory.miss_type_mach_latency_hist_seqr |    29216527     93.80%     93.80% |     1629440      5.23%     99.04% |      285608      0.92%     99.95% |       12511      0.04%     99.99% |        2131      0.01%    100.00% |          40      0.00%    100.00% |           0      0.00%    100.00% |           0      0.00%    100.00% |           0      0.00%    100.00% |           0      0.00%    100.00%
system.ruby.LD.Directory.miss_type_mach_latency_hist_seqr::total     31146257                      
system.ruby.ST.L1Cache.miss_type_mach_latency_hist_seqr::bucket_size            8                      
system.ruby.ST.L1Cache.miss_type_mach_latency_hist_seqr::max_bucket           79                      
system.ruby.ST.L1Cache.miss_type_mach_latency_hist_seqr::samples         9536                      
system.ruby.ST.L1Cache.miss_type_mach_latency_hist_seqr::mean    46.353398                      
system.ruby.ST.L1Cache.miss_type_mach_latency_hist_seqr::gmean    46.337909                      
system.ruby.ST.L1Cache.miss_type_mach_latency_hist_seqr::stdev     1.228701                      
system.ruby.ST.L1Cache.miss_type_mach_latency_hist_seqr |           0      0.00%      0.00% |           0      0.00%      0.00% |           0      0.00%      0.00% |           0      0.00%      0.00% |           0      0.00%      0.00% |        9425     98.84%     98.84% |          82      0.86%     99.70% |          29      0.30%    100.00% |           0      0.00%    100.00% |           0      0.00%    100.00%
system.ruby.ST.L1Cache.miss_type_mach_latency_hist_seqr::total         9536                      
system.ruby.ST.Directory.miss_type_mach_latency_hist_seqr::bucket_size          256                      
system.ruby.ST.Directory.miss_type_mach_latency_hist_seqr::max_bucket         2559                      
system.ruby.ST.Directory.miss_type_mach_latency_hist_seqr::samples      5774805                      
system.ruby.ST.Directory.miss_type_mach_latency_hist_seqr::mean   116.286877                      
system.ruby.ST.Directory.miss_type_mach_latency_hist_seqr::gmean   101.380087                      
system.ruby.ST.Directory.miss_type_mach_latency_hist_seqr::stdev    81.224376                      
system.ruby.ST.Directory.miss_type_mach_latency_hist_seqr |     5445472     94.30%     94.30% |      269412      4.67%     98.96% |       57295      0.99%     99.95% |        2053      0.04%     99.99% |         557      0.01%    100.00% |          16      0.00%    100.00% |           0      0.00%    100.00% |           0      0.00%    100.00% |           0      0.00%    100.00% |           0      0.00%    100.00%
system.ruby.ST.Directory.miss_type_mach_latency_hist_seqr::total      5774805                      
system.ruby.IFETCH.L1Cache.miss_type_mach_latency_hist_seqr::bucket_size           64                      
system.ruby.IFETCH.L1Cache.miss_type_mach_latency_hist_seqr::max_bucket          639                      
system.ruby.IFETCH.L1Cache.miss_type_mach_latency_hist_seqr::samples      2328310                      
system.ruby.IFETCH.L1Cache.miss_type_mach_latency_hist_seqr::mean    45.378649                      
system.ruby.IFETCH.L1Cache.miss_type_mach_latency_hist_seqr::gmean    45.370718                      
system.ruby.IFETCH.L1Cache.miss_type_mach_latency_hist_seqr::stdev     1.059693                      
system.ruby.IFETCH.L1Cache.miss_type_mach_latency_hist_seqr |     2328264    100.00%    100.00% |          37      0.00%    100.00% |           6      0.00%    100.00% |           0      0.00%    100.00% |           0      0.00%    100.00% |           0      0.00%    100.00% |           0      0.00%    100.00% |           0      0.00%    100.00% |           0      0.00%    100.00% |           3      0.00%    100.00%
system.ruby.IFETCH.L1Cache.miss_type_mach_latency_hist_seqr::total      2328310                      
system.ruby.IFETCH.Directory.miss_type_mach_latency_hist_seqr::bucket_size          256                      
system.ruby.IFETCH.Directory.miss_type_mach_latency_hist_seqr::max_bucket         2559                      
system.ruby.IFETCH.Directory.miss_type_mach_latency_hist_seqr::samples     16111105                      
system.ruby.IFETCH.Directory.miss_type_mach_latency_hist_seqr::mean   112.658922                      
system.ruby.IFETCH.Directory.miss_type_mach_latency_hist_seqr::gmean    97.922932                      
system.ruby.IFETCH.Directory.miss_type_mach_latency_hist_seqr::stdev    78.458169                      
system.ruby.IFETCH.Directory.miss_type_mach_latency_hist_seqr |    15256130     94.69%     94.69% |      704039      4.37%     99.06% |      143690      0.89%     99.96% |        5840      0.04%     99.99% |        1380      0.01%    100.00% |          26      0.00%    100.00% |           0      0.00%    100.00% |           0      0.00%    100.00% |           0      0.00%    100.00% |           0      0.00%    100.00%
system.ruby.IFETCH.Directory.miss_type_mach_latency_hist_seqr::total     16111105                      
system.ruby.RMW_Read.L1Cache.miss_type_mach_latency_hist_seqr::bucket_size            8                      
system.ruby.RMW_Read.L1Cache.miss_type_mach_latency_hist_seqr::max_bucket           79                      
system.ruby.RMW_Read.L1Cache.miss_type_mach_latency_hist_seqr::samples         4305                      
system.ruby.RMW_Read.L1Cache.miss_type_mach_latency_hist_seqr::mean    45.284088                      
system.ruby.RMW_Read.L1Cache.miss_type_mach_latency_hist_seqr::gmean    45.272077                      
system.ruby.RMW_Read.L1Cache.miss_type_mach_latency_hist_seqr::stdev     1.116533                      
system.ruby.RMW_Read.L1Cache.miss_type_mach_latency_hist_seqr |           0      0.00%      0.00% |           0      0.00%      0.00% |           0      0.00%      0.00% |           0      0.00%      0.00% |           0      0.00%      0.00% |        4281     99.44%     99.44% |          11      0.26%     99.70% |          13      0.30%    100.00% |           0      0.00%    100.00% |           0      0.00%    100.00%
system.ruby.RMW_Read.L1Cache.miss_type_mach_latency_hist_seqr::total         4305                      
system.ruby.RMW_Read.Directory.miss_type_mach_latency_hist_seqr::bucket_size          128                      
system.ruby.RMW_Read.Directory.miss_type_mach_latency_hist_seqr::max_bucket         1279                      
system.ruby.RMW_Read.Directory.miss_type_mach_latency_hist_seqr::samples        29690                      
system.ruby.RMW_Read.Directory.miss_type_mach_latency_hist_seqr::mean   140.113574                      
system.ruby.RMW_Read.Directory.miss_type_mach_latency_hist_seqr::gmean   126.956903                      
system.ruby.RMW_Read.Directory.miss_type_mach_latency_hist_seqr::stdev    78.966140                      
system.ruby.RMW_Read.Directory.miss_type_mach_latency_hist_seqr |       19462     65.55%     65.55% |        7898     26.60%     92.15% |        1744      5.87%     98.03% |         299      1.01%     99.03% |         213      0.72%     99.75% |          56      0.19%     99.94% |           9      0.03%     99.97% |           9      0.03%    100.00% |           0      0.00%    100.00% |           0      0.00%    100.00%
system.ruby.RMW_Read.Directory.miss_type_mach_latency_hist_seqr::total        29690                      
system.ruby.Locked_RMW_Read.L1Cache.miss_type_mach_latency_hist_seqr::bucket_size            8                      
system.ruby.Locked_RMW_Read.L1Cache.miss_type_mach_latency_hist_seqr::max_bucket           79                      
system.ruby.Locked_RMW_Read.L1Cache.miss_type_mach_latency_hist_seqr::samples         7308                      
system.ruby.Locked_RMW_Read.L1Cache.miss_type_mach_latency_hist_seqr::mean    45.452381                      
system.ruby.Locked_RMW_Read.L1Cache.miss_type_mach_latency_hist_seqr::gmean    45.443903                      
system.ruby.Locked_RMW_Read.L1Cache.miss_type_mach_latency_hist_seqr::stdev     0.892499                      
system.ruby.Locked_RMW_Read.L1Cache.miss_type_mach_latency_hist_seqr |           0      0.00%      0.00% |           0      0.00%      0.00% |           0      0.00%      0.00% |           0      0.00%      0.00% |           0      0.00%      0.00% |        7278     99.59%     99.59% |          28      0.38%     99.97% |           2      0.03%    100.00% |           0      0.00%    100.00% |           0      0.00%    100.00%
system.ruby.Locked_RMW_Read.L1Cache.miss_type_mach_latency_hist_seqr::total         7308                      
system.ruby.Locked_RMW_Read.Directory.miss_type_mach_latency_hist_seqr::bucket_size          128                      
system.ruby.Locked_RMW_Read.Directory.miss_type_mach_latency_hist_seqr::max_bucket         1279                      
system.ruby.Locked_RMW_Read.Directory.miss_type_mach_latency_hist_seqr::samples        30924                      
system.ruby.Locked_RMW_Read.Directory.miss_type_mach_latency_hist_seqr::mean   123.517042                      
system.ruby.Locked_RMW_Read.Directory.miss_type_mach_latency_hist_seqr::gmean   105.718021                      
system.ruby.Locked_RMW_Read.Directory.miss_type_mach_latency_hist_seqr::stdev    79.064797                      
system.ruby.Locked_RMW_Read.Directory.miss_type_mach_latency_hist_seqr |       19440     62.86%     62.86% |        9767     31.58%     94.45% |        1232      3.98%     98.43% |         233      0.75%     99.19% |         174      0.56%     99.75% |          58      0.19%     99.94% |           6      0.02%     99.95% |          12      0.04%     99.99% |           2      0.01%    100.00% |           0      0.00%    100.00%
system.ruby.Locked_RMW_Read.Directory.miss_type_mach_latency_hist_seqr::total        30924                      
system.ruby.Directory_Controller.GETX        28191856      0.00%      0.00%
system.ruby.Directory_Controller.PUTX        26704925      0.00%      0.00%
system.ruby.Directory_Controller.PUTX_NotOwner            3      0.00%      0.00%
system.ruby.Directory_Controller.DMA_READ       195831      0.00%      0.00%
system.ruby.Directory_Controller.DMA_WRITE         6016      0.00%      0.00%
system.ruby.Directory_Controller.Memory_Data     26901306      0.00%      0.00%
system.ruby.Directory_Controller.Memory_Ack     26710941      0.00%      0.00%
system.ruby.Directory_Controller.I.GETX      26705624      0.00%      0.00%
system.ruby.Directory_Controller.I.DMA_READ       195682      0.00%      0.00%
system.ruby.Directory_Controller.I.DMA_WRITE         6016      0.00%      0.00%
system.ruby.Directory_Controller.M.GETX       1485313      0.00%      0.00%
system.ruby.Directory_Controller.M.PUTX      26704776      0.00%      0.00%
system.ruby.Directory_Controller.M.PUTX_NotOwner            3      0.00%      0.00%
system.ruby.Directory_Controller.M.DMA_READ          149      0.00%      0.00%
system.ruby.Directory_Controller.M_DRD.PUTX          149      0.00%      0.00%
system.ruby.Directory_Controller.M_DRDI.Memory_Ack          149      0.00%      0.00%
system.ruby.Directory_Controller.IM.GETX          908      0.00%      0.00%
system.ruby.Directory_Controller.IM.Memory_Data     26705624      0.00%      0.00%
system.ruby.Directory_Controller.MI.GETX           11      0.00%      0.00%
system.ruby.Directory_Controller.MI.Memory_Ack     26704776      0.00%      0.00%
system.ruby.Directory_Controller.ID.Memory_Data       195682      0.00%      0.00%
system.ruby.Directory_Controller.ID_W.Memory_Ack         6016      0.00%      0.00%
system.ruby.DMA_Controller.ReadRequest   |      195831    100.00%    100.00% |           0      0.00%    100.00%
system.ruby.DMA_Controller.ReadRequest::total       195831                      
system.ruby.DMA_Controller.WriteRequest  |        6016    100.00%    100.00% |           0      0.00%    100.00%
system.ruby.DMA_Controller.WriteRequest::total         6016                      
system.ruby.DMA_Controller.Data          |      195831    100.00%    100.00% |           0      0.00%    100.00%
system.ruby.DMA_Controller.Data::total         195831                      
system.ruby.DMA_Controller.Ack           |        6016    100.00%    100.00% |           0      0.00%    100.00%
system.ruby.DMA_Controller.Ack::total            6016                      
system.ruby.DMA_Controller.READY.ReadRequest |      195831    100.00%    100.00% |           0      0.00%    100.00%
system.ruby.DMA_Controller.READY.ReadRequest::total       195831                      
system.ruby.DMA_Controller.READY.WriteRequest |        6016    100.00%    100.00% |           0      0.00%    100.00%
system.ruby.DMA_Controller.READY.WriteRequest::total         6016                      
system.ruby.DMA_Controller.BUSY_RD.Data  |      195831    100.00%    100.00% |           0      0.00%    100.00%
system.ruby.DMA_Controller.BUSY_RD.Data::total       195831                      
system.ruby.DMA_Controller.BUSY_WR.Ack   |        6016    100.00%    100.00% |           0      0.00%    100.00%
system.ruby.DMA_Controller.BUSY_WR.Ack::total         6016                      
system.ruby.L1Cache_Controller.Load      |     3359604      0.68%      0.68% |     1948183      0.39%      1.08% |   487042595     98.65%     99.72% |     1362649      0.28%    100.00%
system.ruby.L1Cache_Controller.Load::total    493713031                      
system.ruby.L1Cache_Controller.Ifetch    |    18286452      0.00%      0.00% |     9882735      0.00%      0.00% |18446744071626864640    100.00%    100.00% |     6440569      0.00%    100.00%
system.ruby.L1Cache_Controller.Ifetch::total 18446744071661473792                      
system.ruby.L1Cache_Controller.Store     |     2601312      1.50%      1.50% |     1399124      0.80%      2.30% |   168980754     97.14%     99.44% |      976287      0.56%    100.00%
system.ruby.L1Cache_Controller.Store::total    173957477                      
system.ruby.L1Cache_Controller.Data      |      664784      2.36%      2.36% |      611327      2.17%      4.53% |    26369951     93.54%     98.07% |      544875      1.93%    100.00%
system.ruby.L1Cache_Controller.Data::total     28190937                      
system.ruby.L1Cache_Controller.Fwd_GETX  |      439898     29.62%     29.62% |      438273     29.51%     59.12% |      164896     11.10%     70.23% |      442246     29.77%    100.00%
system.ruby.L1Cache_Controller.Fwd_GETX::total      1485313                      
system.ruby.L1Cache_Controller.Inv       |         106     35.57%     35.57% |         102     34.23%     69.80% |          16      5.37%     75.17% |          74     24.83%    100.00%
system.ruby.L1Cache_Controller.Inv::total          298                      
system.ruby.L1Cache_Controller.Replacement |      270552      1.01%      1.01% |      213122      0.79%      1.80% |    26256472     97.68%     99.48% |      140011      0.52%    100.00%
system.ruby.L1Cache_Controller.Replacement::total     26880157                      
system.ruby.L1Cache_Controller.Writeback_Ack |      226131      0.85%      0.85% |      172140      0.64%      1.49% |    26205215     98.13%     99.62% |      101439      0.38%    100.00%
system.ruby.L1Cache_Controller.Writeback_Ack::total     26704925                      
system.ruby.L1Cache_Controller.Writeback_Nack |           0      0.00%      0.00% |           0      0.00%      0.00% |           3    100.00%    100.00% |           0      0.00%    100.00%
system.ruby.L1Cache_Controller.Writeback_Nack::total            3                      
system.ruby.L1Cache_Controller.I.Load    |      184550      1.16%      1.16% |      139284      0.88%      2.04% |    15438559     97.27%     99.31% |      109066      0.69%    100.00%
system.ruby.L1Cache_Controller.I.Load::total     15871459                      
system.ruby.L1Cache_Controller.I.Ifetch  |      437664      4.68%      4.68% |      433985      4.64%      9.32% |     8067178     86.26%     95.58% |      413197      4.42%    100.00%
system.ruby.L1Cache_Controller.I.Ifetch::total      9352024                      
system.ruby.L1Cache_Controller.I.Store   |       42570      1.43%      1.43% |       38058      1.28%      2.72% |     2864214     96.52%     99.24% |       22612      0.76%    100.00%
system.ruby.L1Cache_Controller.I.Store::total      2967454                      
system.ruby.L1Cache_Controller.I.Replacement |       44474     25.36%     25.36% |       41033     23.40%     48.76% |       51262     29.23%     77.99% |       38609     22.01%    100.00%
system.ruby.L1Cache_Controller.I.Replacement::total       175378                      
system.ruby.L1Cache_Controller.II.Writeback_Nack |           0      0.00%      0.00% |           0      0.00%      0.00% |           3    100.00%    100.00% |           0      0.00%    100.00%
system.ruby.L1Cache_Controller.II.Writeback_Nack::total            3                      
system.ruby.L1Cache_Controller.M.Load    |     3175054      0.66%      0.66% |     1808899      0.38%      1.04% |   471604036     98.69%     99.74% |     1253583      0.26%    100.00%
system.ruby.L1Cache_Controller.M.Load::total    477841572                      
system.ruby.L1Cache_Controller.M.Ifetch  |    17848788      0.00%      0.00% |     9448750      0.00%      0.00% |18446744071618797568    100.00%    100.00% |     6027372      0.00%    100.00%
system.ruby.L1Cache_Controller.M.Ifetch::total 18446744071652122624                      
system.ruby.L1Cache_Controller.M.Store   |     2558742      1.50%      1.50% |     1361066      0.80%      2.29% |   166116540     97.15%     99.44% |      953675      0.56%    100.00%
system.ruby.L1Cache_Controller.M.Store::total    170990023                      
system.ruby.L1Cache_Controller.M.Fwd_GETX |      439898     29.62%     29.62% |      438273     29.51%     59.12% |      164893     11.10%     70.23% |      442246     29.77%    100.00%
system.ruby.L1Cache_Controller.M.Fwd_GETX::total      1485310                      
system.ruby.L1Cache_Controller.M.Inv     |          53     35.57%     35.57% |          51     34.23%     69.80% |           8      5.37%     75.17% |          37     24.83%    100.00%
system.ruby.L1Cache_Controller.M.Inv::total          149                      
system.ruby.L1Cache_Controller.M.Replacement |      226078      0.85%      0.85% |      172089      0.64%      1.49% |    26205210     98.13%     99.62% |      101402      0.38%    100.00%
system.ruby.L1Cache_Controller.M.Replacement::total     26704779                      
system.ruby.L1Cache_Controller.MI.Fwd_GETX |           0      0.00%      0.00% |           0      0.00%      0.00% |           3    100.00%    100.00% |           0      0.00%    100.00%
system.ruby.L1Cache_Controller.MI.Fwd_GETX::total            3                      
system.ruby.L1Cache_Controller.MI.Inv    |          53     35.57%     35.57% |          51     34.23%     69.80% |           8      5.37%     75.17% |          37     24.83%    100.00%
system.ruby.L1Cache_Controller.MI.Inv::total          149                      
system.ruby.L1Cache_Controller.MI.Writeback_Ack |      226131      0.85%      0.85% |      172140      0.64%      1.49% |    26205215     98.13%     99.62% |      101439      0.38%    100.00%
system.ruby.L1Cache_Controller.MI.Writeback_Ack::total     26704925                      
system.ruby.L1Cache_Controller.IS.Data   |      622214      2.47%      2.47% |      573269      2.27%      4.74% |    23505737     93.19%     97.93% |      522263      2.07%    100.00%
system.ruby.L1Cache_Controller.IS.Data::total     25223483                      
system.ruby.L1Cache_Controller.IM.Data   |       42570      1.43%      1.43% |       38058      1.28%      2.72% |     2864214     96.52%     99.24% |       22612      0.76%    100.00%
system.ruby.L1Cache_Controller.IM.Data::total      2967454                      

---------- End Simulation Statistics   ----------
