
---------- Begin Simulation Statistics ----------
sim_seconds                                  3.385212                       # Number of seconds simulated
sim_ticks                                3385212105500                       # Number of ticks simulated
final_tick                               58967894863501                       # Number of ticks from beginning of simulation (restored from checkpoints and never reset)
sim_freq                                 1000000000000                       # Frequency of simulated ticks
host_inst_rate                                 108262                       # Simulator instruction rate (inst/s)
host_op_rate                                   181488                       # Simulator op (including micro ops) rate (op/s)
host_tick_rate                              238785223                       # Simulator tick rate (ticks/s)
host_mem_usage                                1851728                       # Number of bytes of host memory used
host_seconds                                 14176.81                       # Real time elapsed on the host
sim_insts                                  1534809279                       # Number of instructions simulated
sim_ops                                    2572916614                       # Number of ops (including micro ops) simulated
system.voltage_domain.voltage                       1                       # Voltage in Volts
system.clk_domain.clock                          1000                       # Clock period in ticks
system.mem_ctrls.bytes_read::ruby.dir_cntrl0     10517184                       # Number of bytes read from this memory
system.mem_ctrls.bytes_read::total           10517184                       # Number of bytes read from this memory
system.mem_ctrls.bytes_written::ruby.dir_cntrl0      1261056                       # Number of bytes written to this memory
system.mem_ctrls.bytes_written::total         1261056                       # Number of bytes written to this memory
system.mem_ctrls.num_reads::ruby.dir_cntrl0       164331                       # Number of read requests responded to by this memory
system.mem_ctrls.num_reads::total              164331                       # Number of read requests responded to by this memory
system.mem_ctrls.num_writes::ruby.dir_cntrl0        19704                       # Number of write requests responded to by this memory
system.mem_ctrls.num_writes::total              19704                       # Number of write requests responded to by this memory
system.mem_ctrls.bw_read::ruby.dir_cntrl0      3106802                       # Total read bandwidth from this memory (bytes/s)
system.mem_ctrls.bw_read::total               3106802                       # Total read bandwidth from this memory (bytes/s)
system.mem_ctrls.bw_write::ruby.dir_cntrl0       372519                       # Write bandwidth from this memory (bytes/s)
system.mem_ctrls.bw_write::total               372519                       # Write bandwidth from this memory (bytes/s)
system.mem_ctrls.bw_total::ruby.dir_cntrl0      3479321                       # Total bandwidth to/from this memory (bytes/s)
system.mem_ctrls.bw_total::total              3479321                       # Total bandwidth to/from this memory (bytes/s)
system.mem_ctrls.readReqs                      164331                       # Number of read requests accepted
system.mem_ctrls.writeReqs                      19704                       # Number of write requests accepted
system.mem_ctrls.readBursts                    164331                       # Number of DRAM read bursts, including those serviced by the write queue
system.mem_ctrls.writeBursts                    19704                       # Number of DRAM write bursts, including those merged in the write queue
system.mem_ctrls.bytesReadDRAM               10441152                       # Total number of bytes read from DRAM
system.mem_ctrls.bytesReadWrQ                   76032                       # Total number of bytes read from write queue
system.mem_ctrls.bytesWritten                 1252160                       # Total number of bytes written to DRAM
system.mem_ctrls.bytesReadSys                10517184                       # Total read bytes from the system interface side
system.mem_ctrls.bytesWrittenSys              1261056                       # Total written bytes from the system interface side
system.mem_ctrls.servicedByWrQ                   1188                       # Number of DRAM read bursts serviced by the write queue
system.mem_ctrls.mergedWrBursts                   145                       # Number of DRAM write bursts merged with an existing one
system.mem_ctrls.neitherReadNorWriteReqs            0                       # Number of requests that are neither read nor write
system.mem_ctrls.perBankRdBursts::0             11802                       # Per bank write bursts
system.mem_ctrls.perBankRdBursts::1             10127                       # Per bank write bursts
system.mem_ctrls.perBankRdBursts::2             10264                       # Per bank write bursts
system.mem_ctrls.perBankRdBursts::3              9911                       # Per bank write bursts
system.mem_ctrls.perBankRdBursts::4             10822                       # Per bank write bursts
system.mem_ctrls.perBankRdBursts::5             11475                       # Per bank write bursts
system.mem_ctrls.perBankRdBursts::6             10126                       # Per bank write bursts
system.mem_ctrls.perBankRdBursts::7              9192                       # Per bank write bursts
system.mem_ctrls.perBankRdBursts::8              9235                       # Per bank write bursts
system.mem_ctrls.perBankRdBursts::9              9415                       # Per bank write bursts
system.mem_ctrls.perBankRdBursts::10             9918                       # Per bank write bursts
system.mem_ctrls.perBankRdBursts::11            10511                       # Per bank write bursts
system.mem_ctrls.perBankRdBursts::12            10132                       # Per bank write bursts
system.mem_ctrls.perBankRdBursts::13             9467                       # Per bank write bursts
system.mem_ctrls.perBankRdBursts::14            10550                       # Per bank write bursts
system.mem_ctrls.perBankRdBursts::15            10196                       # Per bank write bursts
system.mem_ctrls.perBankWrBursts::0              1546                       # Per bank write bursts
system.mem_ctrls.perBankWrBursts::1              1942                       # Per bank write bursts
system.mem_ctrls.perBankWrBursts::2              1269                       # Per bank write bursts
system.mem_ctrls.perBankWrBursts::3              1029                       # Per bank write bursts
system.mem_ctrls.perBankWrBursts::4              1366                       # Per bank write bursts
system.mem_ctrls.perBankWrBursts::5              1473                       # Per bank write bursts
system.mem_ctrls.perBankWrBursts::6              1355                       # Per bank write bursts
system.mem_ctrls.perBankWrBursts::7              1195                       # Per bank write bursts
system.mem_ctrls.perBankWrBursts::8               996                       # Per bank write bursts
system.mem_ctrls.perBankWrBursts::9              1142                       # Per bank write bursts
system.mem_ctrls.perBankWrBursts::10              890                       # Per bank write bursts
system.mem_ctrls.perBankWrBursts::11             1068                       # Per bank write bursts
system.mem_ctrls.perBankWrBursts::12             1180                       # Per bank write bursts
system.mem_ctrls.perBankWrBursts::13              963                       # Per bank write bursts
system.mem_ctrls.perBankWrBursts::14             1197                       # Per bank write bursts
system.mem_ctrls.perBankWrBursts::15              954                       # Per bank write bursts
system.mem_ctrls.numRdRetry                         0                       # Number of times read queue was full causing retry
system.mem_ctrls.numWrRetry                         0                       # Number of times write queue was full causing retry
system.mem_ctrls.totGap                  3385212024500                       # Total gap between requests
system.mem_ctrls.readPktSize::0                     0                       # Read request sizes (log2)
system.mem_ctrls.readPktSize::1                     0                       # Read request sizes (log2)
system.mem_ctrls.readPktSize::2                     0                       # Read request sizes (log2)
system.mem_ctrls.readPktSize::3                     0                       # Read request sizes (log2)
system.mem_ctrls.readPktSize::4                     0                       # Read request sizes (log2)
system.mem_ctrls.readPktSize::5                     0                       # Read request sizes (log2)
system.mem_ctrls.readPktSize::6                164331                       # Read request sizes (log2)
system.mem_ctrls.writePktSize::0                    0                       # Write request sizes (log2)
system.mem_ctrls.writePktSize::1                    0                       # Write request sizes (log2)
system.mem_ctrls.writePktSize::2                    0                       # Write request sizes (log2)
system.mem_ctrls.writePktSize::3                    0                       # Write request sizes (log2)
system.mem_ctrls.writePktSize::4                    0                       # Write request sizes (log2)
system.mem_ctrls.writePktSize::5                    0                       # Write request sizes (log2)
system.mem_ctrls.writePktSize::6                19704                       # Write request sizes (log2)
system.mem_ctrls.rdQLenPdf::0                  162516                       # What read queue length does an incoming req see
system.mem_ctrls.rdQLenPdf::1                     616                       # What read queue length does an incoming req see
system.mem_ctrls.rdQLenPdf::2                      11                       # What read queue length does an incoming req see
system.mem_ctrls.rdQLenPdf::3                       0                       # What read queue length does an incoming req see
system.mem_ctrls.rdQLenPdf::4                       0                       # What read queue length does an incoming req see
system.mem_ctrls.rdQLenPdf::5                       0                       # What read queue length does an incoming req see
system.mem_ctrls.rdQLenPdf::6                       0                       # What read queue length does an incoming req see
system.mem_ctrls.rdQLenPdf::7                       0                       # What read queue length does an incoming req see
system.mem_ctrls.rdQLenPdf::8                       0                       # What read queue length does an incoming req see
system.mem_ctrls.rdQLenPdf::9                       0                       # What read queue length does an incoming req see
system.mem_ctrls.rdQLenPdf::10                      0                       # What read queue length does an incoming req see
system.mem_ctrls.rdQLenPdf::11                      0                       # What read queue length does an incoming req see
system.mem_ctrls.rdQLenPdf::12                      0                       # What read queue length does an incoming req see
system.mem_ctrls.rdQLenPdf::13                      0                       # What read queue length does an incoming req see
system.mem_ctrls.rdQLenPdf::14                      0                       # What read queue length does an incoming req see
system.mem_ctrls.rdQLenPdf::15                      0                       # What read queue length does an incoming req see
system.mem_ctrls.rdQLenPdf::16                      0                       # What read queue length does an incoming req see
system.mem_ctrls.rdQLenPdf::17                      0                       # What read queue length does an incoming req see
system.mem_ctrls.rdQLenPdf::18                      0                       # What read queue length does an incoming req see
system.mem_ctrls.rdQLenPdf::19                      0                       # What read queue length does an incoming req see
system.mem_ctrls.rdQLenPdf::20                      0                       # What read queue length does an incoming req see
system.mem_ctrls.rdQLenPdf::21                      0                       # What read queue length does an incoming req see
system.mem_ctrls.rdQLenPdf::22                      0                       # What read queue length does an incoming req see
system.mem_ctrls.rdQLenPdf::23                      0                       # What read queue length does an incoming req see
system.mem_ctrls.rdQLenPdf::24                      0                       # What read queue length does an incoming req see
system.mem_ctrls.rdQLenPdf::25                      0                       # What read queue length does an incoming req see
system.mem_ctrls.rdQLenPdf::26                      0                       # What read queue length does an incoming req see
system.mem_ctrls.rdQLenPdf::27                      0                       # What read queue length does an incoming req see
system.mem_ctrls.rdQLenPdf::28                      0                       # What read queue length does an incoming req see
system.mem_ctrls.rdQLenPdf::29                      0                       # What read queue length does an incoming req see
system.mem_ctrls.rdQLenPdf::30                      0                       # What read queue length does an incoming req see
system.mem_ctrls.rdQLenPdf::31                      0                       # What read queue length does an incoming req see
system.mem_ctrls.wrQLenPdf::0                       0                       # What write queue length does an incoming req see
system.mem_ctrls.wrQLenPdf::1                       0                       # What write queue length does an incoming req see
system.mem_ctrls.wrQLenPdf::2                       0                       # What write queue length does an incoming req see
system.mem_ctrls.wrQLenPdf::3                       0                       # What write queue length does an incoming req see
system.mem_ctrls.wrQLenPdf::4                       0                       # What write queue length does an incoming req see
system.mem_ctrls.wrQLenPdf::5                       0                       # What write queue length does an incoming req see
system.mem_ctrls.wrQLenPdf::6                       0                       # What write queue length does an incoming req see
system.mem_ctrls.wrQLenPdf::7                       0                       # What write queue length does an incoming req see
system.mem_ctrls.wrQLenPdf::8                       0                       # What write queue length does an incoming req see
system.mem_ctrls.wrQLenPdf::9                       0                       # What write queue length does an incoming req see
system.mem_ctrls.wrQLenPdf::10                      0                       # What write queue length does an incoming req see
system.mem_ctrls.wrQLenPdf::11                      0                       # What write queue length does an incoming req see
system.mem_ctrls.wrQLenPdf::12                      0                       # What write queue length does an incoming req see
system.mem_ctrls.wrQLenPdf::13                      0                       # What write queue length does an incoming req see
system.mem_ctrls.wrQLenPdf::14                      0                       # What write queue length does an incoming req see
system.mem_ctrls.wrQLenPdf::15                    209                       # What write queue length does an incoming req see
system.mem_ctrls.wrQLenPdf::16                    259                       # What write queue length does an incoming req see
system.mem_ctrls.wrQLenPdf::17                   1161                       # What write queue length does an incoming req see
system.mem_ctrls.wrQLenPdf::18                   1205                       # What write queue length does an incoming req see
system.mem_ctrls.wrQLenPdf::19                   1192                       # What write queue length does an incoming req see
system.mem_ctrls.wrQLenPdf::20                   1232                       # What write queue length does an incoming req see
system.mem_ctrls.wrQLenPdf::21                   1234                       # What write queue length does an incoming req see
system.mem_ctrls.wrQLenPdf::22                   1187                       # What write queue length does an incoming req see
system.mem_ctrls.wrQLenPdf::23                   1236                       # What write queue length does an incoming req see
system.mem_ctrls.wrQLenPdf::24                   1208                       # What write queue length does an incoming req see
system.mem_ctrls.wrQLenPdf::25                   1175                       # What write queue length does an incoming req see
system.mem_ctrls.wrQLenPdf::26                   1209                       # What write queue length does an incoming req see
system.mem_ctrls.wrQLenPdf::27                   1177                       # What write queue length does an incoming req see
system.mem_ctrls.wrQLenPdf::28                   1199                       # What write queue length does an incoming req see
system.mem_ctrls.wrQLenPdf::29                   1169                       # What write queue length does an incoming req see
system.mem_ctrls.wrQLenPdf::30                   1159                       # What write queue length does an incoming req see
system.mem_ctrls.wrQLenPdf::31                   1165                       # What write queue length does an incoming req see
system.mem_ctrls.wrQLenPdf::32                   1155                       # What write queue length does an incoming req see
system.mem_ctrls.wrQLenPdf::33                      7                       # What write queue length does an incoming req see
system.mem_ctrls.wrQLenPdf::34                      5                       # What write queue length does an incoming req see
system.mem_ctrls.wrQLenPdf::35                      5                       # What write queue length does an incoming req see
system.mem_ctrls.wrQLenPdf::36                      3                       # What write queue length does an incoming req see
system.mem_ctrls.wrQLenPdf::37                      2                       # What write queue length does an incoming req see
system.mem_ctrls.wrQLenPdf::38                      2                       # What write queue length does an incoming req see
system.mem_ctrls.wrQLenPdf::39                      2                       # What write queue length does an incoming req see
system.mem_ctrls.wrQLenPdf::40                      2                       # What write queue length does an incoming req see
system.mem_ctrls.wrQLenPdf::41                      0                       # What write queue length does an incoming req see
system.mem_ctrls.wrQLenPdf::42                      0                       # What write queue length does an incoming req see
system.mem_ctrls.wrQLenPdf::43                      0                       # What write queue length does an incoming req see
system.mem_ctrls.wrQLenPdf::44                      0                       # What write queue length does an incoming req see
system.mem_ctrls.wrQLenPdf::45                      0                       # What write queue length does an incoming req see
system.mem_ctrls.wrQLenPdf::46                      0                       # What write queue length does an incoming req see
system.mem_ctrls.wrQLenPdf::47                      0                       # What write queue length does an incoming req see
system.mem_ctrls.wrQLenPdf::48                      0                       # What write queue length does an incoming req see
system.mem_ctrls.wrQLenPdf::49                      0                       # What write queue length does an incoming req see
system.mem_ctrls.wrQLenPdf::50                      0                       # What write queue length does an incoming req see
system.mem_ctrls.wrQLenPdf::51                      0                       # What write queue length does an incoming req see
system.mem_ctrls.wrQLenPdf::52                      0                       # What write queue length does an incoming req see
system.mem_ctrls.wrQLenPdf::53                      0                       # What write queue length does an incoming req see
system.mem_ctrls.wrQLenPdf::54                      0                       # What write queue length does an incoming req see
system.mem_ctrls.wrQLenPdf::55                      0                       # What write queue length does an incoming req see
system.mem_ctrls.wrQLenPdf::56                      0                       # What write queue length does an incoming req see
system.mem_ctrls.wrQLenPdf::57                      0                       # What write queue length does an incoming req see
system.mem_ctrls.wrQLenPdf::58                      0                       # What write queue length does an incoming req see
system.mem_ctrls.wrQLenPdf::59                      0                       # What write queue length does an incoming req see
system.mem_ctrls.wrQLenPdf::60                      0                       # What write queue length does an incoming req see
system.mem_ctrls.wrQLenPdf::61                      0                       # What write queue length does an incoming req see
system.mem_ctrls.wrQLenPdf::62                      0                       # What write queue length does an incoming req see
system.mem_ctrls.wrQLenPdf::63                      0                       # What write queue length does an incoming req see
system.mem_ctrls.bytesPerActivate::samples        46229                       # Bytes accessed per row activation
system.mem_ctrls.bytesPerActivate::mean    252.947371                       # Bytes accessed per row activation
system.mem_ctrls.bytesPerActivate::gmean   136.428500                       # Bytes accessed per row activation
system.mem_ctrls.bytesPerActivate::stdev   329.932327                       # Bytes accessed per row activation
system.mem_ctrls.bytesPerActivate::0-127        24825     53.70%     53.70% # Bytes accessed per row activation
system.mem_ctrls.bytesPerActivate::128-255         9791     21.18%     74.88% # Bytes accessed per row activation
system.mem_ctrls.bytesPerActivate::256-383         2472      5.35%     80.23% # Bytes accessed per row activation
system.mem_ctrls.bytesPerActivate::384-511         1236      2.67%     82.90% # Bytes accessed per row activation
system.mem_ctrls.bytesPerActivate::512-639          770      1.67%     84.57% # Bytes accessed per row activation
system.mem_ctrls.bytesPerActivate::640-767          405      0.88%     85.44% # Bytes accessed per row activation
system.mem_ctrls.bytesPerActivate::768-895          354      0.77%     86.21% # Bytes accessed per row activation
system.mem_ctrls.bytesPerActivate::896-1023          309      0.67%     86.88% # Bytes accessed per row activation
system.mem_ctrls.bytesPerActivate::1024-1151         6067     13.12%    100.00% # Bytes accessed per row activation
system.mem_ctrls.bytesPerActivate::total        46229                       # Bytes accessed per row activation
system.mem_ctrls.rdPerTurnAround::samples         1151                       # Reads before turning the bus around for writes
system.mem_ctrls.rdPerTurnAround::mean     142.565595                       # Reads before turning the bus around for writes
system.mem_ctrls.rdPerTurnAround::stdev   1424.463301                       # Reads before turning the bus around for writes
system.mem_ctrls.rdPerTurnAround::0-2047         1145     99.48%     99.48% # Reads before turning the bus around for writes
system.mem_ctrls.rdPerTurnAround::2048-4095            1      0.09%     99.57% # Reads before turning the bus around for writes
system.mem_ctrls.rdPerTurnAround::4096-6143            1      0.09%     99.65% # Reads before turning the bus around for writes
system.mem_ctrls.rdPerTurnAround::10240-12287            1      0.09%     99.74% # Reads before turning the bus around for writes
system.mem_ctrls.rdPerTurnAround::16384-18431            1      0.09%     99.83% # Reads before turning the bus around for writes
system.mem_ctrls.rdPerTurnAround::20480-22527            1      0.09%     99.91% # Reads before turning the bus around for writes
system.mem_ctrls.rdPerTurnAround::36864-38911            1      0.09%    100.00% # Reads before turning the bus around for writes
system.mem_ctrls.rdPerTurnAround::total          1151                       # Reads before turning the bus around for writes
system.mem_ctrls.wrPerTurnAround::samples         1151                       # Writes before turning the bus around for reads
system.mem_ctrls.wrPerTurnAround::mean      16.998262                       # Writes before turning the bus around for reads
system.mem_ctrls.wrPerTurnAround::gmean     16.842707                       # Writes before turning the bus around for reads
system.mem_ctrls.wrPerTurnAround::stdev      2.631250                       # Writes before turning the bus around for reads
system.mem_ctrls.wrPerTurnAround::16              929     80.71%     80.71% # Writes before turning the bus around for reads
system.mem_ctrls.wrPerTurnAround::17                3      0.26%     80.97% # Writes before turning the bus around for reads
system.mem_ctrls.wrPerTurnAround::18               95      8.25%     89.23% # Writes before turning the bus around for reads
system.mem_ctrls.wrPerTurnAround::19                4      0.35%     89.57% # Writes before turning the bus around for reads
system.mem_ctrls.wrPerTurnAround::20                1      0.09%     89.66% # Writes before turning the bus around for reads
system.mem_ctrls.wrPerTurnAround::21               35      3.04%     92.70% # Writes before turning the bus around for reads
system.mem_ctrls.wrPerTurnAround::22               15      1.30%     94.01% # Writes before turning the bus around for reads
system.mem_ctrls.wrPerTurnAround::23                6      0.52%     94.53% # Writes before turning the bus around for reads
system.mem_ctrls.wrPerTurnAround::24               27      2.35%     96.87% # Writes before turning the bus around for reads
system.mem_ctrls.wrPerTurnAround::25               13      1.13%     98.00% # Writes before turning the bus around for reads
system.mem_ctrls.wrPerTurnAround::26                1      0.09%     98.09% # Writes before turning the bus around for reads
system.mem_ctrls.wrPerTurnAround::27                2      0.17%     98.26% # Writes before turning the bus around for reads
system.mem_ctrls.wrPerTurnAround::28               17      1.48%     99.74% # Writes before turning the bus around for reads
system.mem_ctrls.wrPerTurnAround::33                1      0.09%     99.83% # Writes before turning the bus around for reads
system.mem_ctrls.wrPerTurnAround::39                1      0.09%     99.91% # Writes before turning the bus around for reads
system.mem_ctrls.wrPerTurnAround::40                1      0.09%    100.00% # Writes before turning the bus around for reads
system.mem_ctrls.wrPerTurnAround::total          1151                       # Writes before turning the bus around for reads
system.mem_ctrls.totQLat                   1078893990                       # Total ticks spent queuing
system.mem_ctrls.totMemAccLat              4137825240                       # Total ticks spent from burst creation until serviced by the DRAM
system.mem_ctrls.totBusLat                  815715000                       # Total ticks spent in databus transfers
system.mem_ctrls.avgQLat                      6613.18                       # Average queueing delay per DRAM burst
system.mem_ctrls.avgBusLat                    5000.00                       # Average bus latency per DRAM burst
system.mem_ctrls.avgMemAccLat                25363.18                       # Average memory access latency per DRAM burst
system.mem_ctrls.avgRdBW                         3.08                       # Average DRAM read bandwidth in MiByte/s
system.mem_ctrls.avgWrBW                         0.37                       # Average achieved write bandwidth in MiByte/s
system.mem_ctrls.avgRdBWSys                      3.11                       # Average system read bandwidth in MiByte/s
system.mem_ctrls.avgWrBWSys                      0.37                       # Average system write bandwidth in MiByte/s
system.mem_ctrls.peakBW                      12800.00                       # Theoretical peak bandwidth in MiByte/s
system.mem_ctrls.busUtil                         0.03                       # Data bus utilization in percentage
system.mem_ctrls.busUtilRead                     0.02                       # Data bus utilization in percentage for reads
system.mem_ctrls.busUtilWrite                    0.00                       # Data bus utilization in percentage for writes
system.mem_ctrls.avgRdQLen                       1.00                       # Average read queue length when enqueuing
system.mem_ctrls.avgWrQLen                      25.29                       # Average write queue length when enqueuing
system.mem_ctrls.readRowHits                   127597                       # Number of row buffer hits during reads
system.mem_ctrls.writeRowHits                    8882                       # Number of row buffer hits during writes
system.mem_ctrls.readRowHitRate                 78.21                       # Row buffer hit rate for reads
system.mem_ctrls.writeRowHitRate                45.41                       # Row buffer hit rate for writes
system.mem_ctrls.avgGap                   18394392.50                       # Average gap between requests
system.mem_ctrls.pageHitRate                    74.70                       # Row buffer hit rate, read and write combined
system.mem_ctrls_0.actEnergy                203893200                       # Energy for activate commands per rank (pJ)
system.mem_ctrls_0.preEnergy                111251250                       # Energy for precharge commands per rank (pJ)
system.mem_ctrls_0.readEnergy               720119400                       # Energy for read commands per rank (pJ)
system.mem_ctrls_0.writeEnergy               72446400                       # Energy for write commands per rank (pJ)
system.mem_ctrls_0.refreshEnergy         221380236480                       # Energy for refresh commands per rank (pJ)
system.mem_ctrls_0.actBackEnergy         101535647265                       # Energy for active background per rank (pJ)
system.mem_ctrls_0.preBackEnergy         1944583947750                       # Energy for precharge background per rank (pJ)
system.mem_ctrls_0.totalEnergy           2268607541745                       # Total energy per rank (pJ)
system.mem_ctrls_0.averagePower            669.320837                       # Core power per rank (mW)
system.mem_ctrls_0.memoryStateTime::IDLE 3233215248500                       # Time in different power states
system.mem_ctrls_0.memoryStateTime::REF  113039680000                       # Time in different power states
system.mem_ctrls_0.memoryStateTime::PRE_PDN            0                       # Time in different power states
system.mem_ctrls_0.memoryStateTime::ACT   38957438000                       # Time in different power states
system.mem_ctrls_0.memoryStateTime::ACT_PDN            0                       # Time in different power states
system.mem_ctrls_1.actEnergy                175399560                       # Energy for activate commands per rank (pJ)
system.mem_ctrls_1.preEnergy                 95704125                       # Energy for precharge commands per rank (pJ)
system.mem_ctrls_1.readEnergy               680846400                       # Energy for read commands per rank (pJ)
system.mem_ctrls_1.writeEnergy               54542160                       # Energy for write commands per rank (pJ)
system.mem_ctrls_1.refreshEnergy         221380236480                       # Energy for refresh commands per rank (pJ)
system.mem_ctrls_1.actBackEnergy          98165747700                       # Energy for active background per rank (pJ)
system.mem_ctrls_1.preBackEnergy         1947540000000                       # Energy for precharge background per rank (pJ)
system.mem_ctrls_1.totalEnergy           2268092476425                       # Total energy per rank (pJ)
system.mem_ctrls_1.averagePower            669.168875                       # Core power per rank (mW)
system.mem_ctrls_1.memoryStateTime::IDLE 3238008502000                       # Time in different power states
system.mem_ctrls_1.memoryStateTime::REF  113039680000                       # Time in different power states
system.mem_ctrls_1.memoryStateTime::PRE_PDN            0                       # Time in different power states
system.mem_ctrls_1.memoryStateTime::ACT   34164158000                       # Time in different power states
system.mem_ctrls_1.memoryStateTime::ACT_PDN            0                       # Time in different power states
system.cpu_voltage_domain.voltage                   1                       # Voltage in Volts
system.cpu_clk_domain.clock                       500                       # Clock period in ticks
system.cpu0.apic_clk_domain.clock                8000                       # Clock period in ticks
system.cpu0.numCycles                      6768205604                       # number of cpu cycles simulated
system.cpu0.numWorkItemsStarted                     0                       # number of work items this cpu started
system.cpu0.numWorkItemsCompleted                   0                       # number of work items this cpu completed
system.cpu0.kern.inst.arm                           0                       # number of arm instructions executed
system.cpu0.kern.inst.quiesce                       0                       # number of quiesce instructions executed
system.cpu0.committedInsts                    4184114                       # Number of instructions committed
system.cpu0.committedOps                      8734402                       # Number of ops (including micro ops) committed
system.cpu0.num_int_alu_accesses              8573510                       # Number of integer alu accesses
system.cpu0.num_fp_alu_accesses                  1778                       # Number of float alu accesses
system.cpu0.num_func_calls                     228686                       # number of times a function call or return occured
system.cpu0.num_conditional_control_insts       698194                       # number of instructions that are conditional controls
system.cpu0.num_int_insts                     8573510                       # number of integer instructions
system.cpu0.num_fp_insts                         1778                       # number of float instructions
system.cpu0.num_int_register_reads           17043612                       # number of times the integer registers were read
system.cpu0.num_int_register_writes           7035013                       # number of times the integer registers were written
system.cpu0.num_fp_register_reads                2988                       # number of times the floating registers were read
system.cpu0.num_fp_register_writes               1416                       # number of times the floating registers were written
system.cpu0.num_cc_register_reads             5325591                       # number of times the CC registers were read
system.cpu0.num_cc_register_writes            2819007                       # number of times the CC registers were written
system.cpu0.num_mem_refs                      1915866                       # number of memory refs
system.cpu0.num_load_insts                    1190798                       # Number of load instructions
system.cpu0.num_store_insts                    725068                       # Number of store instructions
system.cpu0.num_idle_cycles              6747938952.424063                       # Number of idle cycles
system.cpu0.num_busy_cycles              20266651.575938                       # Number of busy cycles
system.cpu0.not_idle_fraction                0.002994                       # Percentage of non-idle cycles
system.cpu0.idle_fraction                    0.997006                       # Percentage of idle cycles
system.cpu0.Branches                           995500                       # Number of branches fetched
system.cpu0.op_class::No_OpClass               117427      1.34%      1.34% # Class of executed instruction
system.cpu0.op_class::IntAlu                  6648062     76.11%     77.46% # Class of executed instruction
system.cpu0.op_class::IntMult                   13572      0.16%     77.61% # Class of executed instruction
system.cpu0.op_class::IntDiv                    38222      0.44%     78.05% # Class of executed instruction
system.cpu0.op_class::FloatAdd                   1344      0.02%     78.07% # Class of executed instruction
system.cpu0.op_class::FloatCmp                      0      0.00%     78.07% # Class of executed instruction
system.cpu0.op_class::FloatCvt                      0      0.00%     78.07% # Class of executed instruction
system.cpu0.op_class::FloatMult                     0      0.00%     78.07% # Class of executed instruction
system.cpu0.op_class::FloatDiv                      0      0.00%     78.07% # Class of executed instruction
system.cpu0.op_class::FloatSqrt                     0      0.00%     78.07% # Class of executed instruction
system.cpu0.op_class::SimdAdd                       0      0.00%     78.07% # Class of executed instruction
system.cpu0.op_class::SimdAddAcc                    0      0.00%     78.07% # Class of executed instruction
system.cpu0.op_class::SimdAlu                       0      0.00%     78.07% # Class of executed instruction
system.cpu0.op_class::SimdCmp                       0      0.00%     78.07% # Class of executed instruction
system.cpu0.op_class::SimdCvt                       0      0.00%     78.07% # Class of executed instruction
system.cpu0.op_class::SimdMisc                      0      0.00%     78.07% # Class of executed instruction
system.cpu0.op_class::SimdMult                      0      0.00%     78.07% # Class of executed instruction
system.cpu0.op_class::SimdMultAcc                   0      0.00%     78.07% # Class of executed instruction
system.cpu0.op_class::SimdShift                     0      0.00%     78.07% # Class of executed instruction
system.cpu0.op_class::SimdShiftAcc                  0      0.00%     78.07% # Class of executed instruction
system.cpu0.op_class::SimdSqrt                      0      0.00%     78.07% # Class of executed instruction
system.cpu0.op_class::SimdFloatAdd                  0      0.00%     78.07% # Class of executed instruction
system.cpu0.op_class::SimdFloatAlu                  0      0.00%     78.07% # Class of executed instruction
system.cpu0.op_class::SimdFloatCmp                  0      0.00%     78.07% # Class of executed instruction
system.cpu0.op_class::SimdFloatCvt                  0      0.00%     78.07% # Class of executed instruction
system.cpu0.op_class::SimdFloatDiv                  0      0.00%     78.07% # Class of executed instruction
system.cpu0.op_class::SimdFloatMisc                 0      0.00%     78.07% # Class of executed instruction
system.cpu0.op_class::SimdFloatMult                 0      0.00%     78.07% # Class of executed instruction
system.cpu0.op_class::SimdFloatMultAcc              0      0.00%     78.07% # Class of executed instruction
system.cpu0.op_class::SimdFloatSqrt                 0      0.00%     78.07% # Class of executed instruction
system.cpu0.op_class::MemRead                 1190798     13.63%     91.70% # Class of executed instruction
system.cpu0.op_class::MemWrite                 725068      8.30%    100.00% # Class of executed instruction
system.cpu0.op_class::IprAccess                     0      0.00%    100.00% # Class of executed instruction
system.cpu0.op_class::InstPrefetch                  0      0.00%    100.00% # Class of executed instruction
system.cpu0.op_class::total                   8734493                       # Class of executed instruction
system.cpu1.apic_clk_domain.clock                8000                       # Clock period in ticks
system.cpu1.numCycles                      6773383309                       # number of cpu cycles simulated
system.cpu1.numWorkItemsStarted                     0                       # number of work items this cpu started
system.cpu1.numWorkItemsCompleted                   0                       # number of work items this cpu completed
system.cpu1.kern.inst.arm                           0                       # number of arm instructions executed
system.cpu1.kern.inst.quiesce                       0                       # number of quiesce instructions executed
system.cpu1.committedInsts                    4721699                       # Number of instructions committed
system.cpu1.committedOps                      9729768                       # Number of ops (including micro ops) committed
system.cpu1.num_int_alu_accesses              9555389                       # Number of integer alu accesses
system.cpu1.num_fp_alu_accesses                    50                       # Number of float alu accesses
system.cpu1.num_func_calls                     236046                       # number of times a function call or return occured
system.cpu1.num_conditional_control_insts       823381                       # number of instructions that are conditional controls
system.cpu1.num_int_insts                     9555389                       # number of integer instructions
system.cpu1.num_fp_insts                           50                       # number of float instructions
system.cpu1.num_int_register_reads           18786980                       # number of times the integer registers were read
system.cpu1.num_int_register_writes           7862202                       # number of times the integer registers were written
system.cpu1.num_fp_register_reads                  78                       # number of times the floating registers were read
system.cpu1.num_fp_register_writes                 38                       # number of times the floating registers were written
system.cpu1.num_cc_register_reads             6147029                       # number of times the CC registers were read
system.cpu1.num_cc_register_writes            3216244                       # number of times the CC registers were written
system.cpu1.num_mem_refs                      2032032                       # number of memory refs
system.cpu1.num_load_insts                    1297865                       # Number of load instructions
system.cpu1.num_store_insts                    734167                       # Number of store instructions
system.cpu1.num_idle_cycles              6751533531.497341                       # Number of idle cycles
system.cpu1.num_busy_cycles              21849777.502658                       # Number of busy cycles
system.cpu1.not_idle_fraction                0.003226                       # Percentage of non-idle cycles
system.cpu1.idle_fraction                    0.996774                       # Percentage of idle cycles
system.cpu1.Branches                          1134943                       # Number of branches fetched
system.cpu1.op_class::No_OpClass               118869      1.22%      1.22% # Class of executed instruction
system.cpu1.op_class::IntAlu                  7526815     77.36%     78.58% # Class of executed instruction
system.cpu1.op_class::IntMult                   18248      0.19%     78.77% # Class of executed instruction
system.cpu1.op_class::IntDiv                    33795      0.35%     79.12% # Class of executed instruction
system.cpu1.op_class::FloatAdd                     32      0.00%     79.12% # Class of executed instruction
system.cpu1.op_class::FloatCmp                      0      0.00%     79.12% # Class of executed instruction
system.cpu1.op_class::FloatCvt                      0      0.00%     79.12% # Class of executed instruction
system.cpu1.op_class::FloatMult                     0      0.00%     79.12% # Class of executed instruction
system.cpu1.op_class::FloatDiv                      0      0.00%     79.12% # Class of executed instruction
system.cpu1.op_class::FloatSqrt                     0      0.00%     79.12% # Class of executed instruction
system.cpu1.op_class::SimdAdd                       0      0.00%     79.12% # Class of executed instruction
system.cpu1.op_class::SimdAddAcc                    0      0.00%     79.12% # Class of executed instruction
system.cpu1.op_class::SimdAlu                       0      0.00%     79.12% # Class of executed instruction
system.cpu1.op_class::SimdCmp                       0      0.00%     79.12% # Class of executed instruction
system.cpu1.op_class::SimdCvt                       0      0.00%     79.12% # Class of executed instruction
system.cpu1.op_class::SimdMisc                      0      0.00%     79.12% # Class of executed instruction
system.cpu1.op_class::SimdMult                      0      0.00%     79.12% # Class of executed instruction
system.cpu1.op_class::SimdMultAcc                   0      0.00%     79.12% # Class of executed instruction
system.cpu1.op_class::SimdShift                     0      0.00%     79.12% # Class of executed instruction
system.cpu1.op_class::SimdShiftAcc                  0      0.00%     79.12% # Class of executed instruction
system.cpu1.op_class::SimdSqrt                      0      0.00%     79.12% # Class of executed instruction
system.cpu1.op_class::SimdFloatAdd                  0      0.00%     79.12% # Class of executed instruction
system.cpu1.op_class::SimdFloatAlu                  0      0.00%     79.12% # Class of executed instruction
system.cpu1.op_class::SimdFloatCmp                  0      0.00%     79.12% # Class of executed instruction
system.cpu1.op_class::SimdFloatCvt                  0      0.00%     79.12% # Class of executed instruction
system.cpu1.op_class::SimdFloatDiv                  0      0.00%     79.12% # Class of executed instruction
system.cpu1.op_class::SimdFloatMisc                 0      0.00%     79.12% # Class of executed instruction
system.cpu1.op_class::SimdFloatMult                 0      0.00%     79.12% # Class of executed instruction
system.cpu1.op_class::SimdFloatMultAcc              0      0.00%     79.12% # Class of executed instruction
system.cpu1.op_class::SimdFloatSqrt                 0      0.00%     79.12% # Class of executed instruction
system.cpu1.op_class::MemRead                 1297865     13.34%     92.45% # Class of executed instruction
system.cpu1.op_class::MemWrite                 734167      7.55%    100.00% # Class of executed instruction
system.cpu1.op_class::IprAccess                     0      0.00%    100.00% # Class of executed instruction
system.cpu1.op_class::InstPrefetch                  0      0.00%    100.00% # Class of executed instruction
system.cpu1.op_class::total                   9729791                       # Class of executed instruction
system.cpu2.apic_clk_domain.clock                8000                       # Clock period in ticks
system.cpu2.numCycles                      6771815339                       # number of cpu cycles simulated
system.cpu2.numWorkItemsStarted                     0                       # number of work items this cpu started
system.cpu2.numWorkItemsCompleted                   0                       # number of work items this cpu completed
system.cpu2.kern.inst.arm                           0                       # number of arm instructions executed
system.cpu2.kern.inst.quiesce                       0                       # number of quiesce instructions executed
system.cpu2.committedInsts                 1521372004                       # Number of instructions committed
system.cpu2.committedOps                   2545220376                       # Number of ops (including micro ops) committed
system.cpu2.num_int_alu_accesses           1949719914                       # Number of integer alu accesses
system.cpu2.num_fp_alu_accesses             965601779                       # Number of float alu accesses
system.cpu2.num_func_calls                   35461499                       # number of times a function call or return occured
system.cpu2.num_conditional_control_insts    171625134                       # number of instructions that are conditional controls
system.cpu2.num_int_insts                  1949719914                       # number of integer instructions
system.cpu2.num_fp_insts                    965601779                       # number of float instructions
system.cpu2.num_int_register_reads         4130207290                       # number of times the integer registers were read
system.cpu2.num_int_register_writes        1329655280                       # number of times the integer registers were written
system.cpu2.num_fp_register_reads          1529965740                       # number of times the floating registers were read
system.cpu2.num_fp_register_writes          790021462                       # number of times the floating registers were written
system.cpu2.num_cc_register_reads          1447296343                       # number of times the CC registers were read
system.cpu2.num_cc_register_writes          550170793                       # number of times the CC registers were written
system.cpu2.num_mem_refs                    644829346                       # number of memory refs
system.cpu2.num_load_insts                  478401370                       # Number of load instructions
system.cpu2.num_store_insts                 166427976                       # Number of store instructions
system.cpu2.num_idle_cycles              5170122.093580                       # Number of idle cycles
system.cpu2.num_busy_cycles              6766645216.906420                       # Number of busy cycles
system.cpu2.not_idle_fraction                0.999237                       # Percentage of non-idle cycles
system.cpu2.idle_fraction                    0.000763                       # Percentage of idle cycles
system.cpu2.Branches                        231470365                       # Number of branches fetched
system.cpu2.op_class::No_OpClass              3383145      0.13%      0.13% # Class of executed instruction
system.cpu2.op_class::IntAlu               1473503285     57.89%     58.03% # Class of executed instruction
system.cpu2.op_class::IntMult                 4733004      0.19%     58.21% # Class of executed instruction
system.cpu2.op_class::IntDiv                 19610585      0.77%     58.98% # Class of executed instruction
system.cpu2.op_class::FloatAdd              398093031     15.64%     74.62% # Class of executed instruction
system.cpu2.op_class::FloatCmp                      0      0.00%     74.62% # Class of executed instruction
system.cpu2.op_class::FloatCvt                      0      0.00%     74.62% # Class of executed instruction
system.cpu2.op_class::FloatMult                     0      0.00%     74.62% # Class of executed instruction
system.cpu2.op_class::FloatDiv                1068156      0.04%     74.67% # Class of executed instruction
system.cpu2.op_class::FloatSqrt                     0      0.00%     74.67% # Class of executed instruction
system.cpu2.op_class::SimdAdd                       0      0.00%     74.67% # Class of executed instruction
system.cpu2.op_class::SimdAddAcc                    0      0.00%     74.67% # Class of executed instruction
system.cpu2.op_class::SimdAlu                       0      0.00%     74.67% # Class of executed instruction
system.cpu2.op_class::SimdCmp                       0      0.00%     74.67% # Class of executed instruction
system.cpu2.op_class::SimdCvt                       0      0.00%     74.67% # Class of executed instruction
system.cpu2.op_class::SimdMisc                      0      0.00%     74.67% # Class of executed instruction
system.cpu2.op_class::SimdMult                      0      0.00%     74.67% # Class of executed instruction
system.cpu2.op_class::SimdMultAcc                   0      0.00%     74.67% # Class of executed instruction
system.cpu2.op_class::SimdShift                     0      0.00%     74.67% # Class of executed instruction
system.cpu2.op_class::SimdShiftAcc                  0      0.00%     74.67% # Class of executed instruction
system.cpu2.op_class::SimdSqrt                      0      0.00%     74.67% # Class of executed instruction
system.cpu2.op_class::SimdFloatAdd                  0      0.00%     74.67% # Class of executed instruction
system.cpu2.op_class::SimdFloatAlu                  0      0.00%     74.67% # Class of executed instruction
system.cpu2.op_class::SimdFloatCmp                  0      0.00%     74.67% # Class of executed instruction
system.cpu2.op_class::SimdFloatCvt                  0      0.00%     74.67% # Class of executed instruction
system.cpu2.op_class::SimdFloatDiv                  0      0.00%     74.67% # Class of executed instruction
system.cpu2.op_class::SimdFloatMisc                 0      0.00%     74.67% # Class of executed instruction
system.cpu2.op_class::SimdFloatMult                 0      0.00%     74.67% # Class of executed instruction
system.cpu2.op_class::SimdFloatMultAcc              0      0.00%     74.67% # Class of executed instruction
system.cpu2.op_class::SimdFloatSqrt                 0      0.00%     74.67% # Class of executed instruction
system.cpu2.op_class::MemRead               478401370     18.80%     93.46% # Class of executed instruction
system.cpu2.op_class::MemWrite              166427976      6.54%    100.00% # Class of executed instruction
system.cpu2.op_class::IprAccess                     0      0.00%    100.00% # Class of executed instruction
system.cpu2.op_class::InstPrefetch                  0      0.00%    100.00% # Class of executed instruction
system.cpu2.op_class::total                2545220552                       # Class of executed instruction
system.cpu3.apic_clk_domain.clock                8000                       # Clock period in ticks
system.cpu3.numCycles                      6771608033                       # number of cpu cycles simulated
system.cpu3.numWorkItemsStarted                     0                       # number of work items this cpu started
system.cpu3.numWorkItemsCompleted                   0                       # number of work items this cpu completed
system.cpu3.kern.inst.arm                           0                       # number of arm instructions executed
system.cpu3.kern.inst.quiesce                       0                       # number of quiesce instructions executed
system.cpu3.committedInsts                    2970608                       # Number of instructions committed
system.cpu3.committedOps                      6325575                       # Number of ops (including micro ops) committed
system.cpu3.num_int_alu_accesses              6198277                       # Number of integer alu accesses
system.cpu3.num_fp_alu_accesses                     0                       # Number of float alu accesses
system.cpu3.num_func_calls                     166114                       # number of times a function call or return occured
system.cpu3.num_conditional_control_insts       506653                       # number of instructions that are conditional controls
system.cpu3.num_int_insts                     6198277                       # number of integer instructions
system.cpu3.num_fp_insts                            0                       # number of float instructions
system.cpu3.num_int_register_reads           12313959                       # number of times the integer registers were read
system.cpu3.num_int_register_writes           5118555                       # number of times the integer registers were written
system.cpu3.num_fp_register_reads                   0                       # number of times the floating registers were read
system.cpu3.num_fp_register_writes                  0                       # number of times the floating registers were written
system.cpu3.num_cc_register_reads             3882661                       # number of times the CC registers were read
system.cpu3.num_cc_register_writes            1970528                       # number of times the CC registers were written
system.cpu3.num_mem_refs                      1398996                       # number of memory refs
system.cpu3.num_load_insts                     874327                       # Number of load instructions
system.cpu3.num_store_insts                    524669                       # Number of store instructions
system.cpu3.num_idle_cycles              6757431954.768154                       # Number of idle cycles
system.cpu3.num_busy_cycles              14176078.231846                       # Number of busy cycles
system.cpu3.not_idle_fraction                0.002093                       # Percentage of non-idle cycles
system.cpu3.idle_fraction                    0.997907                       # Percentage of idle cycles
system.cpu3.Branches                           724644                       # Number of branches fetched
system.cpu3.op_class::No_OpClass               104429      1.65%      1.65% # Class of executed instruction
system.cpu3.op_class::IntAlu                  4773624     75.47%     77.12% # Class of executed instruction
system.cpu3.op_class::IntMult                   11492      0.18%     77.30% # Class of executed instruction
system.cpu3.op_class::IntDiv                    37037      0.59%     77.88% # Class of executed instruction
system.cpu3.op_class::FloatAdd                      0      0.00%     77.88% # Class of executed instruction
system.cpu3.op_class::FloatCmp                      0      0.00%     77.88% # Class of executed instruction
system.cpu3.op_class::FloatCvt                      0      0.00%     77.88% # Class of executed instruction
system.cpu3.op_class::FloatMult                     0      0.00%     77.88% # Class of executed instruction
system.cpu3.op_class::FloatDiv                      0      0.00%     77.88% # Class of executed instruction
system.cpu3.op_class::FloatSqrt                     0      0.00%     77.88% # Class of executed instruction
system.cpu3.op_class::SimdAdd                       0      0.00%     77.88% # Class of executed instruction
system.cpu3.op_class::SimdAddAcc                    0      0.00%     77.88% # Class of executed instruction
system.cpu3.op_class::SimdAlu                       0      0.00%     77.88% # Class of executed instruction
system.cpu3.op_class::SimdCmp                       0      0.00%     77.88% # Class of executed instruction
system.cpu3.op_class::SimdCvt                       0      0.00%     77.88% # Class of executed instruction
system.cpu3.op_class::SimdMisc                      0      0.00%     77.88% # Class of executed instruction
system.cpu3.op_class::SimdMult                      0      0.00%     77.88% # Class of executed instruction
system.cpu3.op_class::SimdMultAcc                   0      0.00%     77.88% # Class of executed instruction
system.cpu3.op_class::SimdShift                     0      0.00%     77.88% # Class of executed instruction
system.cpu3.op_class::SimdShiftAcc                  0      0.00%     77.88% # Class of executed instruction
system.cpu3.op_class::SimdSqrt                      0      0.00%     77.88% # Class of executed instruction
system.cpu3.op_class::SimdFloatAdd                  0      0.00%     77.88% # Class of executed instruction
system.cpu3.op_class::SimdFloatAlu                  0      0.00%     77.88% # Class of executed instruction
system.cpu3.op_class::SimdFloatCmp                  0      0.00%     77.88% # Class of executed instruction
system.cpu3.op_class::SimdFloatCvt                  0      0.00%     77.88% # Class of executed instruction
system.cpu3.op_class::SimdFloatDiv                  0      0.00%     77.88% # Class of executed instruction
system.cpu3.op_class::SimdFloatMisc                 0      0.00%     77.88% # Class of executed instruction
system.cpu3.op_class::SimdFloatMult                 0      0.00%     77.88% # Class of executed instruction
system.cpu3.op_class::SimdFloatMultAcc              0      0.00%     77.88% # Class of executed instruction
system.cpu3.op_class::SimdFloatSqrt                 0      0.00%     77.88% # Class of executed instruction
system.cpu3.op_class::MemRead                  874327     13.82%     91.71% # Class of executed instruction
system.cpu3.op_class::MemWrite                 524669      8.29%    100.00% # Class of executed instruction
system.cpu3.op_class::IprAccess                     0      0.00%    100.00% # Class of executed instruction
system.cpu3.op_class::InstPrefetch                  0      0.00%    100.00% # Class of executed instruction
system.cpu3.op_class::total                   6325578                       # Class of executed instruction
system.iobus.trans_dist::ReadReq                  873                       # Transaction distribution
system.iobus.trans_dist::ReadResp                 873                       # Transaction distribution
system.iobus.trans_dist::WriteReq                5031                       # Transaction distribution
system.iobus.trans_dist::WriteResp               5031                       # Transaction distribution
system.iobus.trans_dist::MessageReq               112                       # Transaction distribution
system.iobus.trans_dist::MessageResp              112                       # Transaction distribution
system.iobus.pkt_count_system.pc.south_bridge.io_apic.int_master::system.ruby.l0_cntrl0.sequencer.pio-slave-port           50                       # Packet count per connected master and slave (bytes)
system.iobus.pkt_count_system.pc.south_bridge.io_apic.int_master::system.ruby.l0_cntrl1.sequencer.pio-slave-port           52                       # Packet count per connected master and slave (bytes)
system.iobus.pkt_count_system.pc.south_bridge.io_apic.int_master::system.ruby.l0_cntrl2.sequencer.pio-slave-port           52                       # Packet count per connected master and slave (bytes)
system.iobus.pkt_count_system.pc.south_bridge.io_apic.int_master::system.ruby.l0_cntrl3.sequencer.pio-slave-port           52                       # Packet count per connected master and slave (bytes)
system.iobus.pkt_count_system.pc.south_bridge.io_apic.int_master::total          206                       # Packet count per connected master and slave (bytes)
system.iobus.pkt_count_system.ruby.l0_cntrl0.sequencer.mem-master-port::system.pc.south_bridge.ide.pio         1104                       # Packet count per connected master and slave (bytes)
system.iobus.pkt_count_system.ruby.l0_cntrl0.sequencer.mem-master-port::system.pc.south_bridge.io_apic.pio            6                       # Packet count per connected master and slave (bytes)
system.iobus.pkt_count_system.ruby.l0_cntrl0.sequencer.mem-master-port::system.pc.com_1.pio          174                       # Packet count per connected master and slave (bytes)
system.iobus.pkt_count_system.ruby.l0_cntrl0.sequencer.mem-master-port::system.ruby.l0_cntrl0.sequencer.pio-slave-port         1762                       # Packet count per connected master and slave (bytes)
system.iobus.pkt_count_system.ruby.l0_cntrl0.sequencer.mem-master-port::system.ruby.l0_cntrl1.sequencer.pio-slave-port            2                       # Packet count per connected master and slave (bytes)
system.iobus.pkt_count_system.ruby.l0_cntrl0.sequencer.mem-master-port::system.ruby.l0_cntrl2.sequencer.pio-slave-port            2                       # Packet count per connected master and slave (bytes)
system.iobus.pkt_count_system.ruby.l0_cntrl0.sequencer.mem-master-port::system.ruby.l0_cntrl3.sequencer.pio-slave-port            2                       # Packet count per connected master and slave (bytes)
system.iobus.pkt_count_system.ruby.l0_cntrl0.sequencer.mem-master-port::total         3052                       # Packet count per connected master and slave (bytes)
system.iobus.pkt_count_system.ruby.l0_cntrl1.sequencer.mem-master-port::system.pc.south_bridge.ide.pio         1524                       # Packet count per connected master and slave (bytes)
system.iobus.pkt_count_system.ruby.l0_cntrl1.sequencer.mem-master-port::system.pc.south_bridge.io_apic.pio            8                       # Packet count per connected master and slave (bytes)
system.iobus.pkt_count_system.ruby.l0_cntrl1.sequencer.mem-master-port::system.pc.com_1.pio            2                       # Packet count per connected master and slave (bytes)
system.iobus.pkt_count_system.ruby.l0_cntrl1.sequencer.mem-master-port::system.ruby.l0_cntrl1.sequencer.pio-slave-port         1758                       # Packet count per connected master and slave (bytes)
system.iobus.pkt_count_system.ruby.l0_cntrl1.sequencer.mem-master-port::system.ruby.l0_cntrl2.sequencer.pio-slave-port            2                       # Packet count per connected master and slave (bytes)
system.iobus.pkt_count_system.ruby.l0_cntrl1.sequencer.mem-master-port::total         3294                       # Packet count per connected master and slave (bytes)
system.iobus.pkt_count_system.ruby.l0_cntrl2.sequencer.mem-master-port::system.pc.south_bridge.ide.pio          980                       # Packet count per connected master and slave (bytes)
system.iobus.pkt_count_system.ruby.l0_cntrl2.sequencer.mem-master-port::system.pc.south_bridge.io_apic.pio            8                       # Packet count per connected master and slave (bytes)
system.iobus.pkt_count_system.ruby.l0_cntrl2.sequencer.mem-master-port::system.ruby.l0_cntrl1.sequencer.pio-slave-port            6                       # Packet count per connected master and slave (bytes)
system.iobus.pkt_count_system.ruby.l0_cntrl2.sequencer.mem-master-port::system.ruby.l0_cntrl2.sequencer.pio-slave-port         1772                       # Packet count per connected master and slave (bytes)
system.iobus.pkt_count_system.ruby.l0_cntrl2.sequencer.mem-master-port::system.ruby.l0_cntrl3.sequencer.pio-slave-port            2                       # Packet count per connected master and slave (bytes)
system.iobus.pkt_count_system.ruby.l0_cntrl2.sequencer.mem-master-port::total         2768                       # Packet count per connected master and slave (bytes)
system.iobus.pkt_count_system.ruby.l0_cntrl3.sequencer.mem-master-port::system.pc.south_bridge.ide.pio          946                       # Packet count per connected master and slave (bytes)
system.iobus.pkt_count_system.ruby.l0_cntrl3.sequencer.mem-master-port::system.pc.south_bridge.io_apic.pio            8                       # Packet count per connected master and slave (bytes)
system.iobus.pkt_count_system.ruby.l0_cntrl3.sequencer.mem-master-port::system.ruby.l0_cntrl0.sequencer.pio-slave-port            2                       # Packet count per connected master and slave (bytes)
system.iobus.pkt_count_system.ruby.l0_cntrl3.sequencer.mem-master-port::system.ruby.l0_cntrl3.sequencer.pio-slave-port         1756                       # Packet count per connected master and slave (bytes)
system.iobus.pkt_count_system.ruby.l0_cntrl3.sequencer.mem-master-port::total         2712                       # Packet count per connected master and slave (bytes)
system.iobus.pkt_count::total                   12032                       # Packet count per connected master and slave (bytes)
system.iobus.pkt_size_system.pc.south_bridge.io_apic.int_master::system.ruby.l0_cntrl0.sequencer.pio-slave-port          100                       # Cumulative packet size per connected master and slave (bytes)
system.iobus.pkt_size_system.pc.south_bridge.io_apic.int_master::system.ruby.l0_cntrl1.sequencer.pio-slave-port          104                       # Cumulative packet size per connected master and slave (bytes)
system.iobus.pkt_size_system.pc.south_bridge.io_apic.int_master::system.ruby.l0_cntrl2.sequencer.pio-slave-port          104                       # Cumulative packet size per connected master and slave (bytes)
system.iobus.pkt_size_system.pc.south_bridge.io_apic.int_master::system.ruby.l0_cntrl3.sequencer.pio-slave-port          104                       # Cumulative packet size per connected master and slave (bytes)
system.iobus.pkt_size_system.pc.south_bridge.io_apic.int_master::total          412                       # Cumulative packet size per connected master and slave (bytes)
system.iobus.pkt_size_system.ruby.l0_cntrl0.sequencer.mem-master-port::system.pc.south_bridge.ide.pio          624                       # Cumulative packet size per connected master and slave (bytes)
system.iobus.pkt_size_system.ruby.l0_cntrl0.sequencer.mem-master-port::system.pc.south_bridge.io_apic.pio           12                       # Cumulative packet size per connected master and slave (bytes)
system.iobus.pkt_size_system.ruby.l0_cntrl0.sequencer.mem-master-port::system.pc.com_1.pio           87                       # Cumulative packet size per connected master and slave (bytes)
system.iobus.pkt_size_system.ruby.l0_cntrl0.sequencer.mem-master-port::system.ruby.l0_cntrl0.sequencer.pio-slave-port         3524                       # Cumulative packet size per connected master and slave (bytes)
system.iobus.pkt_size_system.ruby.l0_cntrl0.sequencer.mem-master-port::system.ruby.l0_cntrl1.sequencer.pio-slave-port            4                       # Cumulative packet size per connected master and slave (bytes)
system.iobus.pkt_size_system.ruby.l0_cntrl0.sequencer.mem-master-port::system.ruby.l0_cntrl2.sequencer.pio-slave-port            4                       # Cumulative packet size per connected master and slave (bytes)
system.iobus.pkt_size_system.ruby.l0_cntrl0.sequencer.mem-master-port::system.ruby.l0_cntrl3.sequencer.pio-slave-port            4                       # Cumulative packet size per connected master and slave (bytes)
system.iobus.pkt_size_system.ruby.l0_cntrl0.sequencer.mem-master-port::total         4259                       # Cumulative packet size per connected master and slave (bytes)
system.iobus.pkt_size_system.ruby.l0_cntrl1.sequencer.mem-master-port::system.pc.south_bridge.ide.pio          870                       # Cumulative packet size per connected master and slave (bytes)
system.iobus.pkt_size_system.ruby.l0_cntrl1.sequencer.mem-master-port::system.pc.south_bridge.io_apic.pio           16                       # Cumulative packet size per connected master and slave (bytes)
system.iobus.pkt_size_system.ruby.l0_cntrl1.sequencer.mem-master-port::system.pc.com_1.pio            1                       # Cumulative packet size per connected master and slave (bytes)
system.iobus.pkt_size_system.ruby.l0_cntrl1.sequencer.mem-master-port::system.ruby.l0_cntrl1.sequencer.pio-slave-port         3516                       # Cumulative packet size per connected master and slave (bytes)
system.iobus.pkt_size_system.ruby.l0_cntrl1.sequencer.mem-master-port::system.ruby.l0_cntrl2.sequencer.pio-slave-port            4                       # Cumulative packet size per connected master and slave (bytes)
system.iobus.pkt_size_system.ruby.l0_cntrl1.sequencer.mem-master-port::total         4407                       # Cumulative packet size per connected master and slave (bytes)
system.iobus.pkt_size_system.ruby.l0_cntrl2.sequencer.mem-master-port::system.pc.south_bridge.ide.pio          550                       # Cumulative packet size per connected master and slave (bytes)
system.iobus.pkt_size_system.ruby.l0_cntrl2.sequencer.mem-master-port::system.pc.south_bridge.io_apic.pio           16                       # Cumulative packet size per connected master and slave (bytes)
system.iobus.pkt_size_system.ruby.l0_cntrl2.sequencer.mem-master-port::system.ruby.l0_cntrl1.sequencer.pio-slave-port           12                       # Cumulative packet size per connected master and slave (bytes)
system.iobus.pkt_size_system.ruby.l0_cntrl2.sequencer.mem-master-port::system.ruby.l0_cntrl2.sequencer.pio-slave-port         3544                       # Cumulative packet size per connected master and slave (bytes)
system.iobus.pkt_size_system.ruby.l0_cntrl2.sequencer.mem-master-port::system.ruby.l0_cntrl3.sequencer.pio-slave-port            4                       # Cumulative packet size per connected master and slave (bytes)
system.iobus.pkt_size_system.ruby.l0_cntrl2.sequencer.mem-master-port::total         4126                       # Cumulative packet size per connected master and slave (bytes)
system.iobus.pkt_size_system.ruby.l0_cntrl3.sequencer.mem-master-port::system.pc.south_bridge.ide.pio          530                       # Cumulative packet size per connected master and slave (bytes)
system.iobus.pkt_size_system.ruby.l0_cntrl3.sequencer.mem-master-port::system.pc.south_bridge.io_apic.pio           16                       # Cumulative packet size per connected master and slave (bytes)
system.iobus.pkt_size_system.ruby.l0_cntrl3.sequencer.mem-master-port::system.ruby.l0_cntrl0.sequencer.pio-slave-port            4                       # Cumulative packet size per connected master and slave (bytes)
system.iobus.pkt_size_system.ruby.l0_cntrl3.sequencer.mem-master-port::system.ruby.l0_cntrl3.sequencer.pio-slave-port         3512                       # Cumulative packet size per connected master and slave (bytes)
system.iobus.pkt_size_system.ruby.l0_cntrl3.sequencer.mem-master-port::total         4062                       # Cumulative packet size per connected master and slave (bytes)
system.iobus.pkt_size::total                    17266                       # Cumulative packet size per connected master and slave (bytes)
system.iobus.reqLayer2.occupancy              3968500                       # Layer occupancy (ticks)
system.iobus.reqLayer2.utilization                0.0                       # Layer utilization (%)
system.iobus.reqLayer8.occupancy                27496                       # Layer occupancy (ticks)
system.iobus.reqLayer8.utilization                0.0                       # Layer utilization (%)
system.iobus.reqLayer12.occupancy              113500                       # Layer occupancy (ticks)
system.iobus.reqLayer12.utilization               0.0                       # Layer utilization (%)
system.iobus.reqLayer17.occupancy             2232974                       # Layer occupancy (ticks)
system.iobus.reqLayer17.utilization               0.0                       # Layer utilization (%)
system.iobus.reqLayer18.occupancy             2255475                       # Layer occupancy (ticks)
system.iobus.reqLayer18.utilization               0.0                       # Layer utilization (%)
system.iobus.reqLayer19.occupancy             2480653                       # Layer occupancy (ticks)
system.iobus.reqLayer19.utilization               0.0                       # Layer utilization (%)
system.iobus.reqLayer20.occupancy             2248975                       # Layer occupancy (ticks)
system.iobus.reqLayer20.utilization               0.0                       # Layer utilization (%)
system.iobus.respLayer0.occupancy              175901                       # Layer occupancy (ticks)
system.iobus.respLayer0.utilization               0.0                       # Layer utilization (%)
system.iobus.respLayer2.occupancy             2227500                       # Layer occupancy (ticks)
system.iobus.respLayer2.utilization               0.0                       # Layer utilization (%)
system.iobus.respLayer4.occupancy             2333500                       # Layer occupancy (ticks)
system.iobus.respLayer4.utilization               0.0                       # Layer utilization (%)
system.iobus.respLayer6.occupancy             2013000                       # Layer occupancy (ticks)
system.iobus.respLayer6.utilization               0.0                       # Layer utilization (%)
system.iobus.respLayer8.occupancy             1974500                       # Layer occupancy (ticks)
system.iobus.respLayer8.utilization               0.0                       # Layer utilization (%)
system.pc.south_bridge.ide.disks.dma_read_full_pages         1523                       # Number of full page size DMA reads (not PRD).
system.pc.south_bridge.ide.disks.dma_read_bytes      6238208                       # Number of bytes transfered via DMA reads (not PRD).
system.pc.south_bridge.ide.disks.dma_read_txs         1523                       # Number of DMA read transactions (not PRD).
system.pc.south_bridge.ide.disks.dma_write_full_pages           45                       # Number of full page size DMA writes.
system.pc.south_bridge.ide.disks.dma_write_bytes       184320                       # Number of bytes transfered via DMA writes.
system.pc.south_bridge.ide.disks.dma_write_txs           45                       # Number of DMA write transactions.
system.ruby.clk_domain.clock                      500                       # Clock period in ticks
system.ruby.delayHist::bucket_size                  4                       # delay histogram for all message
system.ruby.delayHist::max_bucket                  39                       # delay histogram for all message
system.ruby.delayHist::samples              282732723                       # delay histogram for all message
system.ruby.delayHist::mean                  0.103328                       # delay histogram for all message
system.ruby.delayHist::stdev                 0.903169                       # delay histogram for all message
system.ruby.delayHist                    |   279082121     98.71%     98.71% |        8795      0.00%     98.71% |     3641022      1.29%    100.00% |         239      0.00%    100.00% |         504      0.00%    100.00% |          11      0.00%    100.00% |          30      0.00%    100.00% |           1      0.00%    100.00% |           0      0.00%    100.00% |           0      0.00%    100.00% # delay histogram for all message
system.ruby.delayHist::total                282732723                       # delay histogram for all message
system.ruby.outstanding_req_hist_seqr::bucket_size            1                      
system.ruby.outstanding_req_hist_seqr::max_bucket            9                      
system.ruby.outstanding_req_hist_seqr::samples   2884029969                      
system.ruby.outstanding_req_hist_seqr::mean     1.000000                      
system.ruby.outstanding_req_hist_seqr::gmean     1.000000                      
system.ruby.outstanding_req_hist_seqr::stdev     0.000272                      
system.ruby.outstanding_req_hist_seqr    |           0      0.00%      0.00% |  2884029756    100.00%    100.00% |         213      0.00%    100.00% |           0      0.00%    100.00% |           0      0.00%    100.00% |           0      0.00%    100.00% |           0      0.00%    100.00% |           0      0.00%    100.00% |           0      0.00%    100.00% |           0      0.00%    100.00%
system.ruby.outstanding_req_hist_seqr::total   2884029969                      
system.ruby.latency_hist_seqr::bucket_size          256                      
system.ruby.latency_hist_seqr::max_bucket         2559                      
system.ruby.latency_hist_seqr::samples     2884029969                      
[...]
system.ruby.L1Cache_Controller.Ack_all::total        23725                      
system.ruby.L1Cache_Controller.WB_Ack    |      127474      0.49%      0.49% |       66375      0.25%      0.74% |    25764805     98.98%     99.73% |       71397      0.27%    100.00%
system.ruby.L1Cache_Controller.WB_Ack::total     26030051                      
system.ruby.L1Cache_Controller.I.Load    |      180558      0.75%      0.75% |      125917      0.52%      1.28% |    23556339     98.18%     99.46% |      130393      0.54%    100.00%
system.ruby.L1Cache_Controller.I.Load::total     23993207                      
system.ruby.L1Cache_Controller.I.Store   |       30165      1.19%      1.19% |       20101      0.79%      1.99% |     2463372     97.28%     99.27% |       18565      0.73%    100.00%
system.ruby.L1Cache_Controller.I.Store::total      2532203                      
system.ruby.L1Cache_Controller.I.Inv     |        7519     27.35%     27.35% |        7629     27.75%     55.10% |        6795     24.72%     79.82% |        5548     20.18%    100.00%
system.ruby.L1Cache_Controller.I.Inv::total        27491                      
system.ruby.L1Cache_Controller.S.Load    |      271240     14.30%     14.30% |      293532     15.47%     29.77% |     1065138     56.15%     85.93% |      266942     14.07%    100.00%
system.ruby.L1Cache_Controller.S.Load::total      1896852                      
system.ruby.L1Cache_Controller.S.Store   |        6901     40.83%     40.83% |        3348     19.81%     60.64% |        3513     20.79%     81.43% |        3138     18.57%    100.00%
system.ruby.L1Cache_Controller.S.Store::total        16900                      
system.ruby.L1Cache_Controller.S.L0_Invalidate_Own |       71531     15.99%     15.99% |       64102     14.33%     30.32% |      248246     55.50%     85.82% |       63448     14.18%    100.00%
system.ruby.L1Cache_Controller.S.L0_Invalidate_Own::total       447327                      
system.ruby.L1Cache_Controller.S.L0_Invalidate_Else |        2569     14.19%     14.19% |        6733     37.19%     51.38% |        1930     10.66%     62.04% |        6872     37.96%    100.00%
system.ruby.L1Cache_Controller.S.L0_Invalidate_Else::total        18104                      
system.ruby.L1Cache_Controller.SS.Load   |        4025     53.19%     53.19% |        1445     19.10%     72.29% |        1039     13.73%     86.02% |        1058     13.98%    100.00%
system.ruby.L1Cache_Controller.SS.Load::total         7567                      
system.ruby.L1Cache_Controller.SS.Store  |        1364     85.52%     85.52% |         183     11.47%     96.99% |          22      1.38%     98.37% |          26      1.63%    100.00%
system.ruby.L1Cache_Controller.SS.Store::total         1595                      
system.ruby.L1Cache_Controller.SS.Inv    |        6846     21.16%     21.16% |       11865     36.68%     57.84% |        3475     10.74%     68.59% |       10162     31.41%    100.00%
system.ruby.L1Cache_Controller.SS.Inv::total        32348                      
system.ruby.L1Cache_Controller.SS.L1_Replacement |       72955     16.09%     16.09% |       65372     14.42%     30.51% |      249878     55.12%     85.63% |       65167     14.37%    100.00%
system.ruby.L1Cache_Controller.SS.L1_Replacement::total       453372                      
system.ruby.L1Cache_Controller.E.WriteBack |      101807      0.45%      0.45% |       52070      0.23%      0.68% |    22270546     99.06%     99.75% |       57215      0.25%    100.00%
system.ruby.L1Cache_Controller.E.WriteBack::total     22481638                      
system.ruby.L1Cache_Controller.E.L0_Invalidate_Own |        1183      0.11%      0.11% |         925      0.09%      0.20% |     1032926     99.73%     99.93% |         712      0.07%    100.00%
system.ruby.L1Cache_Controller.E.L0_Invalidate_Own::total      1035746                      
system.ruby.L1Cache_Controller.E.L0_Invalidate_Else |         332     36.73%     36.73% |         291     32.19%     68.92% |          96     10.62%     79.54% |         185     20.46%    100.00%
system.ruby.L1Cache_Controller.E.L0_Invalidate_Else::total          904                      
system.ruby.L1Cache_Controller.EE.Inv    |           4     14.29%     14.29% |           8     28.57%     42.86% |           5     17.86%     60.71% |          11     39.29%    100.00%
system.ruby.L1Cache_Controller.EE.Inv::total           28                      
system.ruby.L1Cache_Controller.EE.L1_Replacement |         979      0.10%      0.10% |         609      0.06%      0.16% |      991699     99.79%     99.95% |         534      0.05%    100.00%
system.ruby.L1Cache_Controller.EE.L1_Replacement::total       993821                      
system.ruby.L1Cache_Controller.EE.Fwd_GETX |          11     52.38%     52.38% |           3     14.29%     66.67% |           4     19.05%     85.71% |           3     14.29%    100.00%
system.ruby.L1Cache_Controller.EE.Fwd_GETX::total           21                      
system.ruby.L1Cache_Controller.EE.Fwd_GETS |         201     37.36%     37.36% |         172     31.97%     69.33% |          65     12.08%     81.41% |         100     18.59%    100.00%
system.ruby.L1Cache_Controller.EE.Fwd_GETS::total          538                      
system.ruby.L1Cache_Controller.M.WriteBack |      690295      0.57%      0.57% |      261471      0.21%      0.78% |   120562514     99.06%     99.85% |      187871      0.15%    100.00%
system.ruby.L1Cache_Controller.M.WriteBack::total    121702151                      
system.ruby.L1Cache_Controller.M.L0_Invalidate_Own |        3846      0.18%      0.18% |        5149      0.24%      0.42% |     2154225     99.40%     99.82% |        3915      0.18%    100.00%
system.ruby.L1Cache_Controller.M.L0_Invalidate_Own::total      2167135                      
system.ruby.L1Cache_Controller.M.L0_Invalidate_Else |        4766     42.31%     42.31% |        2913     25.86%     68.17% |        1302     11.56%     79.73% |        2283     20.27%    100.00%
system.ruby.L1Cache_Controller.M.L0_Invalidate_Else::total        11264                      
system.ruby.L1Cache_Controller.MM.Load   |      508562      0.46%      0.46% |      195445      0.18%      0.64% |   109003130     99.25%     99.89% |      120303      0.11%    100.00%
system.ruby.L1Cache_Controller.MM.Load::total    109827440                      
system.ruby.L1Cache_Controller.MM.Store  |      151889      1.32%      1.32% |       50480      0.44%      1.76% |    11248004     97.79%     99.55% |       52045      0.45%    100.00%
system.ruby.L1Cache_Controller.MM.Store::total     11502418                      
system.ruby.L1Cache_Controller.MM.Inv    |         668     23.48%     23.48% |         843     29.63%     53.11% |         431     15.15%     68.26% |         903     31.74%    100.00%
system.ruby.L1Cache_Controller.MM.Inv::total         2845                      
system.ruby.L1Cache_Controller.MM.L1_Replacement |      126495      0.51%      0.51% |       65766      0.26%      0.77% |    24773106     98.95%     99.72% |       70863      0.28%    100.00%
system.ruby.L1Cache_Controller.MM.L1_Replacement::total     25036230                      
system.ruby.L1Cache_Controller.MM.Fwd_GETX |        2878     42.76%     42.76% |        1329     19.75%     62.51% |        1206     17.92%     80.43% |        1317     19.57%    100.00%
system.ruby.L1Cache_Controller.MM.Fwd_GETX::total         6730                      
system.ruby.L1Cache_Controller.MM.Fwd_GETS |       10963     38.17%     38.17% |        7628     26.56%     64.73% |        4223     14.70%     79.43% |        5907     20.57%    100.00%
system.ruby.L1Cache_Controller.MM.Fwd_GETS::total        28721                      
system.ruby.L1Cache_Controller.IS.Data_Exclusive |      103296      0.44%      0.44% |       53301      0.23%      0.67% |    23303560     99.09%     99.75% |       58117      0.25%    100.00%
system.ruby.L1Cache_Controller.IS.Data_Exclusive::total     23518274                      
system.ruby.L1Cache_Controller.IS.DataS_fromL1 |        7911     27.04%     27.04% |       10689     36.53%     63.57% |        4057     13.87%     77.44% |        6602     22.56%    100.00%
system.ruby.L1Cache_Controller.IS.DataS_fromL1::total        29259                      
system.ruby.L1Cache_Controller.IS.Data_all_Acks |       69351     15.56%     15.56% |       61927     13.90%     29.46% |      248722     55.81%     85.26% |       65674     14.74%    100.00%
system.ruby.L1Cache_Controller.IS.Data_all_Acks::total       445674                      
system.ruby.L1Cache_Controller.IM.Data   |        2378     45.46%     45.46% |         138      2.64%     48.10% |         966     18.47%     66.56% |        1749     33.44%    100.00%
system.ruby.L1Cache_Controller.IM.Data::total         5231                      
system.ruby.L1Cache_Controller.IM.Data_all_Acks |       27787      1.10%      1.10% |       19964      0.79%      1.89% |     2462406     97.44%     99.33% |       16816      0.67%    100.00%
system.ruby.L1Cache_Controller.IM.Data_all_Acks::total      2526973                      
system.ruby.L1Cache_Controller.SM.Inv    |           0      0.00%      0.00% |           1    100.00%    100.00% |           0      0.00%    100.00% |           0      0.00%    100.00%
system.ruby.L1Cache_Controller.SM.Inv::total            1                      
system.ruby.L1Cache_Controller.SM.Ack    |       20397     50.46%     50.46% |        4787     11.84%     62.30% |        8539     21.12%     83.42% |        6701     16.58%    100.00%
system.ruby.L1Cache_Controller.SM.Ack::total        40424                      
system.ruby.L1Cache_Controller.SM.Ack_all |       10643     44.86%     44.86% |        3668     15.46%     60.32% |        4501     18.97%     79.29% |        4913     20.71%    100.00%
system.ruby.L1Cache_Controller.SM.Ack_all::total        23725                      
system.ruby.L1Cache_Controller.M_I.WB_Ack |      127474      0.49%      0.49% |       66375      0.25%      0.74% |    25764805     98.98%     99.73% |       71397      0.27%    100.00%
system.ruby.L1Cache_Controller.M_I.WB_Ack::total     26030051                      
system.ruby.L1Cache_Controller.S_IL0.Store |           0      0.00%      0.00% |           1    100.00%    100.00% |           0      0.00%    100.00% |           0      0.00%    100.00%
system.ruby.L1Cache_Controller.S_IL0.Store::total            1                      
system.ruby.L1Cache_Controller.S_IL0.L0_Invalidate_Own |       71531     15.99%     15.99% |       64102     14.33%     30.32% |      248246     55.50%     85.82% |       63448     14.18%    100.00%
system.ruby.L1Cache_Controller.S_IL0.L0_Invalidate_Own::total       447327                      
system.ruby.L1Cache_Controller.S_IL0.L0_Invalidate_Else |        2569     14.19%     14.19% |        6733     37.19%     51.38% |        1930     10.66%     62.04% |        6872     37.96%    100.00%
system.ruby.L1Cache_Controller.S_IL0.L0_Invalidate_Else::total        18104                      
system.ruby.L1Cache_Controller.S_IL0.L0_Ack |       74100     15.92%     15.92% |       70835     15.22%     31.14% |      250176     53.75%     84.89% |       70320     15.11%    100.00%
system.ruby.L1Cache_Controller.S_IL0.L0_Ack::total       465431                      
system.ruby.L1Cache_Controller.E_IL0.WriteBack |           0      0.00%      0.00% |           1    100.00%    100.00% |           0      0.00%    100.00% |           0      0.00%    100.00%
system.ruby.L1Cache_Controller.E_IL0.WriteBack::total            1                      
system.ruby.L1Cache_Controller.E_IL0.L0_DataAck |         320      0.76%      0.76% |         423      1.00%      1.76% |       41249     97.65%     99.41% |         249      0.59%    100.00%
system.ruby.L1Cache_Controller.E_IL0.L0_DataAck::total        42241                      
system.ruby.L1Cache_Controller.E_IL0.L0_Invalidate_Own |        1183      0.11%      0.11% |         925      0.09%      0.20% |     1032926     99.73%     99.93% |         712      0.07%    100.00%
system.ruby.L1Cache_Controller.E_IL0.L0_Invalidate_Own::total      1035746                      
system.ruby.L1Cache_Controller.E_IL0.L0_Invalidate_Else |         332     36.73%     36.73% |         291     32.19%     68.92% |          96     10.62%     79.54% |         185     20.46%    100.00%
system.ruby.L1Cache_Controller.E_IL0.L0_Invalidate_Else::total          904                      
system.ruby.L1Cache_Controller.E_IL0.L0_Ack |        1195      0.12%      0.12% |         792      0.08%      0.20% |      991773     99.74%     99.93% |         648      0.07%    100.00%
system.ruby.L1Cache_Controller.E_IL0.L0_Ack::total       994408                      
system.ruby.L1Cache_Controller.M_IL0.L0_DataAck |        6207      0.99%      0.99% |        6025      0.96%      1.95% |      610743     97.41%     99.36% |        3982      0.64%    100.00%
system.ruby.L1Cache_Controller.M_IL0.L0_DataAck::total       626957                      
system.ruby.L1Cache_Controller.M_IL0.L0_Invalidate_Own |        3846      0.18%      0.18% |        5149      0.24%      0.42% |     2154225     99.40%     99.82% |        3915      0.18%    100.00%
system.ruby.L1Cache_Controller.M_IL0.L0_Invalidate_Own::total      2167135                      
system.ruby.L1Cache_Controller.M_IL0.L0_Invalidate_Else |        4766     42.31%     42.31% |        2913     25.86%     68.17% |        1302     11.56%     79.73% |        2283     20.27%    100.00%
system.ruby.L1Cache_Controller.M_IL0.L0_Invalidate_Else::total        11264                      
system.ruby.L1Cache_Controller.M_IL0.L0_Ack |        2405      0.16%      0.16% |        2037      0.13%      0.29% |     1544784     99.57%     99.86% |        2216      0.14%    100.00%
system.ruby.L1Cache_Controller.M_IL0.L0_Ack::total      1551442                      
system.ruby.L1Cache_Controller.MM_IL0.Fwd_GETS |           0      0.00%      0.00% |           1    100.00%    100.00% |           0      0.00%    100.00% |           0      0.00%    100.00%
system.ruby.L1Cache_Controller.MM_IL0.Fwd_GETS::total            1                      
system.ruby.L1Cache_Controller.MM_IL0.L0_Ack |           0      0.00%      0.00% |           1    100.00%    100.00% |           0      0.00%    100.00% |           0      0.00%    100.00%
system.ruby.L1Cache_Controller.MM_IL0.L0_Ack::total            1                      
system.ruby.L2Cache_Controller.L1_GETS       23993554      0.00%      0.00%
system.ruby.L2Cache_Controller.L1_GETX        2532212      0.00%      0.00%
system.ruby.L2Cache_Controller.L1_UPGRADE        18495      0.00%      0.00%
system.ruby.L2Cache_Controller.L1_PUTX       26030051      0.00%      0.00%
system.ruby.L2Cache_Controller.L2_Replacement        38550      0.00%      0.00%
system.ruby.L2Cache_Controller.L2_Replacement_clean        90775      0.00%      0.00%
system.ruby.L2Cache_Controller.Mem_Data        146379      0.00%      0.00%
system.ruby.L2Cache_Controller.Mem_Ack         130010      0.00%      0.00%
system.ruby.L2Cache_Controller.WB_Data          17752      0.00%      0.00%
system.ruby.L2Cache_Controller.WB_Data_clean        14352      0.00%      0.00%
system.ruby.L2Cache_Controller.Ack               9364      0.00%      0.00%
system.ruby.L2Cache_Controller.Ack_all           4849      0.00%      0.00%
system.ruby.L2Cache_Controller.Unblock          29259      0.00%      0.00%
system.ruby.L2Cache_Controller.Exclusive_Unblock     26068972      0.00%      0.00%
system.ruby.L2Cache_Controller.MEM_Inv           1370      0.00%      0.00%
system.ruby.L2Cache_Controller.NP.L1_GETS       119490      0.00%      0.00%
system.ruby.L2Cache_Controller.NP.L1_GETX        26889      0.00%      0.00%
system.ruby.L2Cache_Controller.SS.L1_GETS       445650      0.00%      0.00%
system.ruby.L2Cache_Controller.SS.L1_GETX         5231      0.00%      0.00%
system.ruby.L2Cache_Controller.SS.L1_UPGRADE        18494      0.00%      0.00%
system.ruby.L2Cache_Controller.SS.L2_Replacement          751      0.00%      0.00%
system.ruby.L2Cache_Controller.SS.L2_Replacement_clean         4006      0.00%      0.00%
system.ruby.L2Cache_Controller.SS.MEM_Inv           64      0.00%      0.00%
system.ruby.L2Cache_Controller.M.L1_GETS     23398796      0.00%      0.00%
system.ruby.L2Cache_Controller.M.L1_GETX      2493333      0.00%      0.00%
system.ruby.L2Cache_Controller.M.L2_Replacement        36782      0.00%      0.00%
system.ruby.L2Cache_Controller.M.L2_Replacement_clean        85045      0.00%      0.00%
system.ruby.L2Cache_Controller.M.MEM_Inv          489      0.00%      0.00%
system.ruby.L2Cache_Controller.MT.L1_GETS        29259      0.00%      0.00%
system.ruby.L2Cache_Controller.MT.L1_GETX         6751      0.00%      0.00%
system.ruby.L2Cache_Controller.MT.L1_PUTX     26030051      0.00%      0.00%
system.ruby.L2Cache_Controller.MT.L2_Replacement         1017      0.00%      0.00%
system.ruby.L2Cache_Controller.MT.L2_Replacement_clean         1724      0.00%      0.00%
system.ruby.L2Cache_Controller.MT.MEM_Inv          132      0.00%      0.00%
system.ruby.L2Cache_Controller.M_I.L1_GETX            1      0.00%      0.00%
system.ruby.L2Cache_Controller.M_I.Mem_Ack       130010      0.00%      0.00%
system.ruby.L2Cache_Controller.M_I.MEM_Inv          489      0.00%      0.00%
system.ruby.L2Cache_Controller.MT_I.WB_Data         1006      0.00%      0.00%
system.ruby.L2Cache_Controller.MT_I.WB_Data_clean          141      0.00%      0.00%
system.ruby.L2Cache_Controller.MT_I.Ack_all            2      0.00%      0.00%
system.ruby.L2Cache_Controller.MT_I.MEM_Inv          132      0.00%      0.00%
system.ruby.L2Cache_Controller.MCT_I.WB_Data          877      0.00%      0.00%
system.ruby.L2Cache_Controller.MCT_I.WB_Data_clean          821      0.00%      0.00%
system.ruby.L2Cache_Controller.MCT_I.Ack_all           26      0.00%      0.00%
system.ruby.L2Cache_Controller.I_I.Ack           8431      0.00%      0.00%
system.ruby.L2Cache_Controller.I_I.Ack_all         4006      0.00%      0.00%
system.ruby.L2Cache_Controller.S_I.Ack            933      0.00%      0.00%
system.ruby.L2Cache_Controller.S_I.Ack_all          815      0.00%      0.00%
system.ruby.L2Cache_Controller.S_I.MEM_Inv           64      0.00%      0.00%
system.ruby.L2Cache_Controller.ISS.L1_GETS           12      0.00%      0.00%
system.ruby.L2Cache_Controller.ISS.Mem_Data       119478      0.00%      0.00%
system.ruby.L2Cache_Controller.IS.Mem_Data           12      0.00%      0.00%
system.ruby.L2Cache_Controller.IM.Mem_Data        26889      0.00%      0.00%
system.ruby.L2Cache_Controller.SS_MB.L1_GETS           78      0.00%      0.00%
system.ruby.L2Cache_Controller.SS_MB.L1_GETX            4      0.00%      0.00%
system.ruby.L2Cache_Controller.SS_MB.L1_UPGRADE            1      0.00%      0.00%
system.ruby.L2Cache_Controller.SS_MB.Exclusive_Unblock        23725      0.00%      0.00%
system.ruby.L2Cache_Controller.MT_MB.L1_GETS          269      0.00%      0.00%
system.ruby.L2Cache_Controller.MT_MB.L1_GETX            2      0.00%      0.00%
system.ruby.L2Cache_Controller.MT_MB.Exclusive_Unblock     26045247      0.00%      0.00%
system.ruby.L2Cache_Controller.MT_IIB.L1_GETX            1      0.00%      0.00%
system.ruby.L2Cache_Controller.MT_IIB.WB_Data        15863      0.00%      0.00%
system.ruby.L2Cache_Controller.MT_IIB.WB_Data_clean        13383      0.00%      0.00%
system.ruby.L2Cache_Controller.MT_IIB.Unblock           13      0.00%      0.00%
system.ruby.L2Cache_Controller.MT_IB.WB_Data            6      0.00%      0.00%
system.ruby.L2Cache_Controller.MT_IB.WB_Data_clean            7      0.00%      0.00%
system.ruby.L2Cache_Controller.MT_SB.Unblock        29246      0.00%      0.00%

---------- End Simulation Statistics   ----------
