
---------- Begin Simulation Statistics ----------
sim_seconds                                  2.364431                       # Number of seconds simulated
sim_ticks                                2364430553000                       # Number of ticks simulated
final_tick                               55191237738001                       # Number of ticks from beginning of simulation (restored from checkpoints and never reset)
sim_freq                                 1000000000000                       # Frequency of simulated ticks
host_inst_rate                                 137887                       # Simulator instruction rate (inst/s)
host_op_rate                                   249943                       # Simulator op (including micro ops) rate (op/s)
host_tick_rate                              248324955                       # Simulator tick rate (ticks/s)
host_mem_usage                                2001404                       # Number of bytes of host memory used
host_seconds                                  9521.52                       # Real time elapsed on the host
sim_insts                                  1312892941                       # Number of instructions simulated
sim_ops                                    2379837976                       # Number of ops (including micro ops) simulated
system.voltage_domain.voltage                       1                       # Voltage in Volts
system.clk_domain.clock                          1000                       # Clock period in ticks
system.mem_ctrls0.bytes_read::ruby.dir_cntrl0     24827072                       # Number of bytes read from this memory
system.mem_ctrls0.bytes_read::total          24827072                       # Number of bytes read from this memory
system.mem_ctrls0.bytes_written::ruby.dir_cntrl0      9719616                       # Number of bytes written to this memory
system.mem_ctrls0.bytes_written::total        9719616                       # Number of bytes written to this memory
system.mem_ctrls0.num_reads::ruby.dir_cntrl0       387923                       # Number of read requests responded to by this memory
system.mem_ctrls0.num_reads::total             387923                       # Number of read requests responded to by this memory
system.mem_ctrls0.num_writes::ruby.dir_cntrl0       151869                       # Number of write requests responded to by this memory
system.mem_ctrls0.num_writes::total            151869                       # Number of write requests responded to by this memory
system.mem_ctrls0.bw_read::ruby.dir_cntrl0     10500233                       # Total read bandwidth from this memory (bytes/s)
system.mem_ctrls0.bw_read::total             10500233                       # Total read bandwidth from this memory (bytes/s)
system.mem_ctrls0.bw_write::ruby.dir_cntrl0      4110764                       # Write bandwidth from this memory (bytes/s)
system.mem_ctrls0.bw_write::total             4110764                       # Write bandwidth from this memory (bytes/s)
system.mem_ctrls0.bw_total::ruby.dir_cntrl0     14610997                       # Total bandwidth to/from this memory (bytes/s)
system.mem_ctrls0.bw_total::total            14610997                       # Total bandwidth to/from this memory (bytes/s)
system.mem_ctrls0.readReqs                     387923                       # Number of read requests accepted
system.mem_ctrls0.writeReqs                    151869                       # Number of write requests accepted
system.mem_ctrls0.readBursts                   387923                       # Number of DRAM read bursts, including those serviced by the write queue
system.mem_ctrls0.writeBursts                  151869                       # Number of DRAM write bursts, including those merged in the write queue
system.mem_ctrls0.bytesReadDRAM              24802240                       # Total number of bytes read from DRAM
system.mem_ctrls0.bytesReadWrQ                  24832                       # Total number of bytes read from write queue
system.mem_ctrls0.bytesWritten                9719680                       # Total number of bytes written to DRAM
system.mem_ctrls0.bytesReadSys               24827072                       # Total read bytes from the system interface side
system.mem_ctrls0.bytesWrittenSys             9719616                       # Total written bytes from the system interface side
system.mem_ctrls0.servicedByWrQ                   388                       # Number of DRAM read bursts serviced by the write queue
system.mem_ctrls0.mergedWrBursts                    0                       # Number of DRAM write bursts merged with an existing one
system.mem_ctrls0.neitherReadNorWriteReqs            0                       # Number of requests that are neither read nor write
system.mem_ctrls0.perBankRdBursts::0            26201                       # Per bank write bursts
system.mem_ctrls0.perBankRdBursts::1            21246                       # Per bank write bursts
system.mem_ctrls0.perBankRdBursts::2            20124                       # Per bank write bursts
system.mem_ctrls0.perBankRdBursts::3            23804                       # Per bank write bursts
system.mem_ctrls0.perBankRdBursts::4            22177                       # Per bank write bursts
system.mem_ctrls0.perBankRdBursts::5            20477                       # Per bank write bursts
system.mem_ctrls0.perBankRdBursts::6            24577                       # Per bank write bursts
system.mem_ctrls0.perBankRdBursts::7            26298                       # Per bank write bursts
system.mem_ctrls0.perBankRdBursts::8            21826                       # Per bank write bursts
system.mem_ctrls0.perBankRdBursts::9            25148                       # Per bank write bursts
system.mem_ctrls0.perBankRdBursts::10           26739                       # Per bank write bursts
system.mem_ctrls0.perBankRdBursts::11           23121                       # Per bank write bursts
system.mem_ctrls0.perBankRdBursts::12           26026                       # Per bank write bursts
system.mem_ctrls0.perBankRdBursts::13           29778                       # Per bank write bursts
system.mem_ctrls0.perBankRdBursts::14           25046                       # Per bank write bursts
system.mem_ctrls0.perBankRdBursts::15           24947                       # Per bank write bursts
system.mem_ctrls0.perBankWrBursts::0            10507                       # Per bank write bursts
system.mem_ctrls0.perBankWrBursts::1             8579                       # Per bank write bursts
system.mem_ctrls0.perBankWrBursts::2             8106                       # Per bank write bursts
system.mem_ctrls0.perBankWrBursts::3             9315                       # Per bank write bursts
system.mem_ctrls0.perBankWrBursts::4             8423                       # Per bank write bursts
system.mem_ctrls0.perBankWrBursts::5             7873                       # Per bank write bursts
system.mem_ctrls0.perBankWrBursts::6             9669                       # Per bank write bursts
system.mem_ctrls0.perBankWrBursts::7            10309                       # Per bank write bursts
system.mem_ctrls0.perBankWrBursts::8             8794                       # Per bank write bursts
system.mem_ctrls0.perBankWrBursts::9            10076                       # Per bank write bursts
system.mem_ctrls0.perBankWrBursts::10           10463                       # Per bank write bursts
system.mem_ctrls0.perBankWrBursts::11            8904                       # Per bank write bursts
system.mem_ctrls0.perBankWrBursts::12            9918                       # Per bank write bursts
system.mem_ctrls0.perBankWrBursts::13           11382                       # Per bank write bursts
system.mem_ctrls0.perBankWrBursts::14            9650                       # Per bank write bursts
system.mem_ctrls0.perBankWrBursts::15            9902                       # Per bank write bursts
system.mem_ctrls0.numRdRetry                        0                       # Number of times read queue was full causing retry
system.mem_ctrls0.numWrRetry                        0                       # Number of times write queue was full causing retry
system.mem_ctrls0.totGap                 2364427851000                       # Total gap between requests
system.mem_ctrls0.readPktSize::0                    0                       # Read request sizes (log2)
system.mem_ctrls0.readPktSize::1                    0                       # Read request sizes (log2)
system.mem_ctrls0.readPktSize::2                    0                       # Read request sizes (log2)
system.mem_ctrls0.readPktSize::3                    0                       # Read request sizes (log2)
system.mem_ctrls0.readPktSize::4                    0                       # Read request sizes (log2)
system.mem_ctrls0.readPktSize::5                    0                       # Read request sizes (log2)
system.mem_ctrls0.readPktSize::6               387923                       # Read request sizes (log2)
system.mem_ctrls0.writePktSize::0                   0                       # Write request sizes (log2)
system.mem_ctrls0.writePktSize::1                   0                       # Write request sizes (log2)
system.mem_ctrls0.writePktSize::2                   0                       # Write request sizes (log2)
system.mem_ctrls0.writePktSize::3                   0                       # Write request sizes (log2)
system.mem_ctrls0.writePktSize::4                   0                       # Write request sizes (log2)
system.mem_ctrls0.writePktSize::5                   0                       # Write request sizes (log2)
system.mem_ctrls0.writePktSize::6              151869                       # Write request sizes (log2)
system.mem_ctrls0.rdQLenPdf::0                 387453                       # What read queue length does an incoming req see
system.mem_ctrls0.rdQLenPdf::1                     81                       # What read queue length does an incoming req see
system.mem_ctrls0.rdQLenPdf::2                      1                       # What read queue length does an incoming req see
system.mem_ctrls0.rdQLenPdf::3                      0                       # What read queue length does an incoming req see
system.mem_ctrls0.rdQLenPdf::4                      0                       # What read queue length does an incoming req see
system.mem_ctrls0.rdQLenPdf::5                      0                       # What read queue length does an incoming req see
system.mem_ctrls0.rdQLenPdf::6                      0                       # What read queue length does an incoming req see
system.mem_ctrls0.rdQLenPdf::7                      0                       # What read queue length does an incoming req see
system.mem_ctrls0.rdQLenPdf::8                      0                       # What read queue length does an incoming req see
system.mem_ctrls0.rdQLenPdf::9                      0                       # What read queue length does an incoming req see
system.mem_ctrls0.rdQLenPdf::10                     0                       # What read queue length does an incoming req see
system.mem_ctrls0.rdQLenPdf::11                     0                       # What read queue length does an incoming req see
system.mem_ctrls0.rdQLenPdf::12                     0                       # What read queue length does an incoming req see
system.mem_ctrls0.rdQLenPdf::13                     0                       # What read queue length does an incoming req see
system.mem_ctrls0.rdQLenPdf::14                     0                       # What read queue length does an incoming req see
system.mem_ctrls0.rdQLenPdf::15                     0                       # What read queue length does an incoming req see
system.mem_ctrls0.rdQLenPdf::16                     0                       # What read queue length does an incoming req see
system.mem_ctrls0.rdQLenPdf::17                     0                       # What read queue length does an incoming req see
system.mem_ctrls0.rdQLenPdf::18                     0                       # What read queue length does an incoming req see
system.mem_ctrls0.rdQLenPdf::19                     0                       # What read queue length does an incoming req see
system.mem_ctrls0.rdQLenPdf::20                     0                       # What read queue length does an incoming req see
system.mem_ctrls0.rdQLenPdf::21                     0                       # What read queue length does an incoming req see
system.mem_ctrls0.rdQLenPdf::22                     0                       # What read queue length does an incoming req see
system.mem_ctrls0.rdQLenPdf::23                     0                       # What read queue length does an incoming req see
system.mem_ctrls0.rdQLenPdf::24                     0                       # What read queue length does an incoming req see
system.mem_ctrls0.rdQLenPdf::25                     0                       # What read queue length does an incoming req see
system.mem_ctrls0.rdQLenPdf::26                     0                       # What read queue length does an incoming req see
system.mem_ctrls0.rdQLenPdf::27                     0                       # What read queue length does an incoming req see
system.mem_ctrls0.rdQLenPdf::28                     0                       # What read queue length does an incoming req see
system.mem_ctrls0.rdQLenPdf::29                     0                       # What read queue length does an incoming req see
system.mem_ctrls0.rdQLenPdf::30                     0                       # What read queue length does an incoming req see
system.mem_ctrls0.rdQLenPdf::31                     0                       # What read queue length does an incoming req see
system.mem_ctrls0.wrQLenPdf::0                      0                       # What write queue length does an incoming req see
system.mem_ctrls0.wrQLenPdf::1                      0                       # What write queue length does an incoming req see
system.mem_ctrls0.wrQLenPdf::2                      0                       # What write queue length does an incoming req see
system.mem_ctrls0.wrQLenPdf::3                      0                       # What write queue length does an incoming req see
system.mem_ctrls0.wrQLenPdf::4                      0                       # What write queue length does an incoming req see
system.mem_ctrls0.wrQLenPdf::5                      0                       # What write queue length does an incoming req see
system.mem_ctrls0.wrQLenPdf::6                      0                       # What write queue length does an incoming req see
system.mem_ctrls0.wrQLenPdf::7                      0                       # What write queue length does an incoming req see
system.mem_ctrls0.wrQLenPdf::8                      0                       # What write queue length does an incoming req see
system.mem_ctrls0.wrQLenPdf::9                      0                       # What write queue length does an incoming req see
system.mem_ctrls0.wrQLenPdf::10                     0                       # What write queue length does an incoming req see
system.mem_ctrls0.wrQLenPdf::11                     0                       # What write queue length does an incoming req see
system.mem_ctrls0.wrQLenPdf::12                     0                       # What write queue length does an incoming req see
system.mem_ctrls0.wrQLenPdf::13                     0                       # What write queue length does an incoming req see
system.mem_ctrls0.wrQLenPdf::14                     0                       # What write queue length does an incoming req see
system.mem_ctrls0.wrQLenPdf::15                  7686                       # What write queue length does an incoming req see
system.mem_ctrls0.wrQLenPdf::16                  7707                       # What write queue length does an incoming req see
system.mem_ctrls0.wrQLenPdf::17                  8513                       # What write queue length does an incoming req see
system.mem_ctrls0.wrQLenPdf::18                  8535                       # What write queue length does an incoming req see
system.mem_ctrls0.wrQLenPdf::19                  8535                       # What write queue length does an incoming req see
system.mem_ctrls0.wrQLenPdf::20                  8529                       # What write queue length does an incoming req see
system.mem_ctrls0.wrQLenPdf::21                  8529                       # What write queue length does an incoming req see
system.mem_ctrls0.wrQLenPdf::22                  8530                       # What write queue length does an incoming req see
system.mem_ctrls0.wrQLenPdf::23                  8530                       # What write queue length does an incoming req see
system.mem_ctrls0.wrQLenPdf::24                  8532                       # What write queue length does an incoming req see
system.mem_ctrls0.wrQLenPdf::25                  8528                       # What write queue length does an incoming req see
system.mem_ctrls0.wrQLenPdf::26                  8532                       # What write queue length does an incoming req see
system.mem_ctrls0.wrQLenPdf::27                  8532                       # What write queue length does an incoming req see
system.mem_ctrls0.wrQLenPdf::28                  8534                       # What write queue length does an incoming req see
system.mem_ctrls0.wrQLenPdf::29                  8532                       # What write queue length does an incoming req see
system.mem_ctrls0.wrQLenPdf::30                  8528                       # What write queue length does an incoming req see
system.mem_ctrls0.wrQLenPdf::31                  8527                       # What write queue length does an incoming req see
system.mem_ctrls0.wrQLenPdf::32                  8528                       # What write queue length does an incoming req see
system.mem_ctrls0.wrQLenPdf::33                     2                       # What write queue length does an incoming req see
system.mem_ctrls0.wrQLenPdf::34                     0                       # What write queue length does an incoming req see
system.mem_ctrls0.wrQLenPdf::35                     0                       # What write queue length does an incoming req see
system.mem_ctrls0.wrQLenPdf::36                     0                       # What write queue length does an incoming req see
system.mem_ctrls0.wrQLenPdf::37                     0                       # What write queue length does an incoming req see
system.mem_ctrls0.wrQLenPdf::38                     0                       # What write queue length does an incoming req see
system.mem_ctrls0.wrQLenPdf::39                     0                       # What write queue length does an incoming req see
system.mem_ctrls0.wrQLenPdf::40                     0                       # What write queue length does an incoming req see
system.mem_ctrls0.wrQLenPdf::41                     0                       # What write queue length does an incoming req see
system.mem_ctrls0.wrQLenPdf::42                     0                       # What write queue length does an incoming req see
system.mem_ctrls0.wrQLenPdf::43                     0                       # What write queue length does an incoming req see
system.mem_ctrls0.wrQLenPdf::44                     0                       # What write queue length does an incoming req see
system.mem_ctrls0.wrQLenPdf::45                     0                       # What write queue length does an incoming req see
system.mem_ctrls0.wrQLenPdf::46                     0                       # What write queue length does an incoming req see
system.mem_ctrls0.wrQLenPdf::47                     0                       # What write queue length does an incoming req see
system.mem_ctrls0.wrQLenPdf::48                     0                       # What write queue length does an incoming req see
system.mem_ctrls0.wrQLenPdf::49                     0                       # What write queue length does an incoming req see
system.mem_ctrls0.wrQLenPdf::50                     0                       # What write queue length does an incoming req see
system.mem_ctrls0.wrQLenPdf::51                     0                       # What write queue length does an incoming req see
system.mem_ctrls0.wrQLenPdf::52                     0                       # What write queue length does an incoming req see
system.mem_ctrls0.wrQLenPdf::53                     0                       # What write queue length does an incoming req see
system.mem_ctrls0.wrQLenPdf::54                     0                       # What write queue length does an incoming req see
system.mem_ctrls0.wrQLenPdf::55                     0                       # What write queue length does an incoming req see
system.mem_ctrls0.wrQLenPdf::56                     0                       # What write queue length does an incoming req see
system.mem_ctrls0.wrQLenPdf::57                     0                       # What write queue length does an incoming req see
system.mem_ctrls0.wrQLenPdf::58                     0                       # What write queue length does an incoming req see
system.mem_ctrls0.wrQLenPdf::59                     0                       # What write queue length does an incoming req see
system.mem_ctrls0.wrQLenPdf::60                     0                       # What write queue length does an incoming req see
system.mem_ctrls0.wrQLenPdf::61                     0                       # What write queue length does an incoming req see
system.mem_ctrls0.wrQLenPdf::62                     0                       # What write queue length does an incoming req see
system.mem_ctrls0.wrQLenPdf::63                     0                       # What write queue length does an incoming req see
system.mem_ctrls0.bytesPerActivate::samples       213259                       # Bytes accessed per row activation
system.mem_ctrls0.bytesPerActivate::mean   161.878505                       # Bytes accessed per row activation
system.mem_ctrls0.bytesPerActivate::gmean   111.657715                       # Bytes accessed per row activation
system.mem_ctrls0.bytesPerActivate::stdev   195.415882                       # Bytes accessed per row activation
system.mem_ctrls0.bytesPerActivate::0-127       113885     53.40%     53.40% # Bytes accessed per row activation
system.mem_ctrls0.bytesPerActivate::128-255        68917     32.32%     85.72% # Bytes accessed per row activation
system.mem_ctrls0.bytesPerActivate::256-383         9551      4.48%     90.20% # Bytes accessed per row activation
system.mem_ctrls0.bytesPerActivate::384-511         4600      2.16%     92.35% # Bytes accessed per row activation
system.mem_ctrls0.bytesPerActivate::512-639         3747      1.76%     94.11% # Bytes accessed per row activation
system.mem_ctrls0.bytesPerActivate::640-767         3852      1.81%     95.92% # Bytes accessed per row activation
system.mem_ctrls0.bytesPerActivate::768-895         3144      1.47%     97.39% # Bytes accessed per row activation
system.mem_ctrls0.bytesPerActivate::896-1023         2330      1.09%     98.48% # Bytes accessed per row activation
system.mem_ctrls0.bytesPerActivate::1024-1151         3233      1.52%    100.00% # Bytes accessed per row activation
system.mem_ctrls0.bytesPerActivate::total       213259                       # Bytes accessed per row activation
system.mem_ctrls0.rdPerTurnAround::samples         8528                       # Reads before turning the bus around for writes
system.mem_ctrls0.rdPerTurnAround::mean     45.443480                       # Reads before turning the bus around for writes
system.mem_ctrls0.rdPerTurnAround::stdev    54.781064                       # Reads before turning the bus around for writes
system.mem_ctrls0.rdPerTurnAround::0-127         8207     96.24%     96.24% # Reads before turning the bus around for writes
system.mem_ctrls0.rdPerTurnAround::128-255          257      3.01%     99.25% # Reads before turning the bus around for writes
system.mem_ctrls0.rdPerTurnAround::256-383           34      0.40%     99.65% # Reads before turning the bus around for writes
system.mem_ctrls0.rdPerTurnAround::384-511           19      0.22%     99.87% # Reads before turning the bus around for writes
system.mem_ctrls0.rdPerTurnAround::512-639            6      0.07%     99.94% # Reads before turning the bus around for writes
system.mem_ctrls0.rdPerTurnAround::640-767            1      0.01%     99.95% # Reads before turning the bus around for writes
system.mem_ctrls0.rdPerTurnAround::768-895            2      0.02%     99.98% # Reads before turning the bus around for writes
system.mem_ctrls0.rdPerTurnAround::1408-1535            1      0.01%     99.99% # Reads before turning the bus around for writes
system.mem_ctrls0.rdPerTurnAround::2560-2687            1      0.01%    100.00% # Reads before turning the bus around for writes
system.mem_ctrls0.rdPerTurnAround::total         8528                       # Reads before turning the bus around for writes
system.mem_ctrls0.wrPerTurnAround::samples         8528                       # Writes before turning the bus around for reads
system.mem_ctrls0.wrPerTurnAround::mean     17.808396                       # Writes before turning the bus around for reads
system.mem_ctrls0.wrPerTurnAround::gmean    17.797747                       # Writes before turning the bus around for reads
system.mem_ctrls0.wrPerTurnAround::stdev     0.597375                       # Writes before turning the bus around for reads
system.mem_ctrls0.wrPerTurnAround::16             824      9.66%      9.66% # Writes before turning the bus around for reads
system.mem_ctrls0.wrPerTurnAround::17              18      0.21%      9.87% # Writes before turning the bus around for reads
system.mem_ctrls0.wrPerTurnAround::18            7658     89.80%     99.67% # Writes before turning the bus around for reads
system.mem_ctrls0.wrPerTurnAround::19              25      0.29%     99.96% # Writes before turning the bus around for reads
system.mem_ctrls0.wrPerTurnAround::20               2      0.02%     99.99% # Writes before turning the bus around for reads
system.mem_ctrls0.wrPerTurnAround::21               1      0.01%    100.00% # Writes before turning the bus around for reads
system.mem_ctrls0.wrPerTurnAround::total         8528                       # Writes before turning the bus around for reads
system.mem_ctrls0.totQLat                  2889063500                       # Total ticks spent queuing
system.mem_ctrls0.totMemAccLat            10155344750                       # Total ticks spent from burst creation until serviced by the DRAM
system.mem_ctrls0.totBusLat                1937675000                       # Total ticks spent in databus transfers
system.mem_ctrls0.avgQLat                     7454.97                       # Average queueing delay per DRAM burst
system.mem_ctrls0.avgBusLat                   5000.00                       # Average bus latency per DRAM burst
system.mem_ctrls0.avgMemAccLat               26204.97                       # Average memory access latency per DRAM burst
system.mem_ctrls0.avgRdBW                       10.49                       # Average DRAM read bandwidth in MiByte/s
system.mem_ctrls0.avgWrBW                        4.11                       # Average achieved write bandwidth in MiByte/s
system.mem_ctrls0.avgRdBWSys                    10.50                       # Average system read bandwidth in MiByte/s
system.mem_ctrls0.avgWrBWSys                     4.11                       # Average system write bandwidth in MiByte/s
system.mem_ctrls0.peakBW                     12800.00                       # Theoretical peak bandwidth in MiByte/s
system.mem_ctrls0.busUtil                        0.11                       # Data bus utilization in percentage
system.mem_ctrls0.busUtilRead                    0.08                       # Data bus utilization in percentage for reads
system.mem_ctrls0.busUtilWrite                   0.03                       # Data bus utilization in percentage for writes
system.mem_ctrls0.avgRdQLen                      1.00                       # Average read queue length when enqueuing
system.mem_ctrls0.avgWrQLen                     24.58                       # Average write queue length when enqueuing
system.mem_ctrls0.readRowHits                  273881                       # Number of row buffer hits during reads
system.mem_ctrls0.writeRowHits                  52266                       # Number of row buffer hits during writes
system.mem_ctrls0.readRowHitRate                70.67                       # Row buffer hit rate for reads
system.mem_ctrls0.writeRowHitRate               34.42                       # Row buffer hit rate for writes
system.mem_ctrls0.avgGap                   4380257.30                       # Average gap between requests
system.mem_ctrls0.pageHitRate                   60.46                       # Row buffer hit rate, read and write combined
system.mem_ctrls0_0.actEnergy               780736320                       # Energy for activate commands per rank (pJ)
system.mem_ctrls0_0.preEnergy               425997000                       # Energy for precharge commands per rank (pJ)
system.mem_ctrls0_0.readEnergy             1500127200                       # Energy for read commands per rank (pJ)
system.mem_ctrls0_0.writeEnergy             475761600                       # Energy for write commands per rank (pJ)
system.mem_ctrls0_0.refreshEnergy        155242008480                       # Energy for refresh commands per rank (pJ)
system.mem_ctrls0_0.actBackEnergy        202596368535                       # Energy for active background per rank (pJ)
system.mem_ctrls0_0.preBackEnergy        1248373096500                       # Energy for precharge background per rank (pJ)
system.mem_ctrls0_0.totalEnergy          1609394095635                       # Total energy per rank (pJ)
system.mem_ctrls0_0.averagePower           677.122056                       # Core power per rank (mW)
system.mem_ctrls0_0.memoryStateTime::IDLE 2068704197000                       # Time in different power states
system.mem_ctrls0_0.memoryStateTime::REF  78953680000                       # Time in different power states
system.mem_ctrls0_0.memoryStateTime::PRE_PDN            0                       # Time in different power states
system.mem_ctrls0_0.memoryStateTime::ACT 216772442000                       # Time in different power states
system.mem_ctrls0_0.memoryStateTime::ACT_PDN            0                       # Time in different power states
system.mem_ctrls0_1.actEnergy               863291520                       # Energy for activate commands per rank (pJ)
system.mem_ctrls0_1.preEnergy               471042000                       # Energy for precharge commands per rank (pJ)
system.mem_ctrls0_1.readEnergy             1636869000                       # Energy for read commands per rank (pJ)
system.mem_ctrls0_1.writeEnergy             516177360                       # Energy for write commands per rank (pJ)
system.mem_ctrls0_1.refreshEnergy        155242008480                       # Energy for refresh commands per rank (pJ)
system.mem_ctrls0_1.actBackEnergy        220622841405                       # Energy for active background per rank (pJ)
system.mem_ctrls0_1.preBackEnergy        1232560409250                       # Energy for precharge background per rank (pJ)
system.mem_ctrls0_1.totalEnergy          1611912639015                       # Total energy per rank (pJ)
system.mem_ctrls0_1.averagePower           678.181681                       # Core power per rank (mW)
system.mem_ctrls0_1.memoryStateTime::IDLE 2042878441500                       # Time in different power states
system.mem_ctrls0_1.memoryStateTime::REF  78953680000                       # Time in different power states
system.mem_ctrls0_1.memoryStateTime::PRE_PDN            0                       # Time in different power states
system.mem_ctrls0_1.memoryStateTime::ACT 242602843500                       # Time in different power states
system.mem_ctrls0_1.memoryStateTime::ACT_PDN            0                       # Time in different power states
system.mem_ctrls1.bytes_read::ruby.dir_cntrl1     24845696                       # Number of bytes read from this memory
system.mem_ctrls1.bytes_read::total          24845696                       # Number of bytes read from this memory
system.mem_ctrls1.bytes_written::ruby.dir_cntrl1     13738496                       # Number of bytes written to this memory
system.mem_ctrls1.bytes_written::total       13738496                       # Number of bytes written to this memory
system.mem_ctrls1.num_reads::ruby.dir_cntrl1       388214                       # Number of read requests responded to by this memory
system.mem_ctrls1.num_reads::total             388214                       # Number of read requests responded to by this memory
system.mem_ctrls1.num_writes::ruby.dir_cntrl1       214664                       # Number of write requests responded to by this memory
system.mem_ctrls1.num_writes::total            214664                       # Number of write requests responded to by this memory
system.mem_ctrls1.bw_read::ruby.dir_cntrl1     10508110                       # Total read bandwidth from this memory (bytes/s)
system.mem_ctrls1.bw_read::total             10508110                       # Total read bandwidth from this memory (bytes/s)
system.mem_ctrls1.bw_write::ruby.dir_cntrl1      5810488                       # Write bandwidth from this memory (bytes/s)
system.mem_ctrls1.bw_write::total             5810488                       # Write bandwidth from this memory (bytes/s)
system.mem_ctrls1.bw_total::ruby.dir_cntrl1     16318598                       # Total bandwidth to/from this memory (bytes/s)
system.mem_ctrls1.bw_total::total            16318598                       # Total bandwidth to/from this memory (bytes/s)
system.mem_ctrls1.readReqs                     388214                       # Number of read requests accepted
system.mem_ctrls1.writeReqs                    214664                       # Number of write requests accepted
system.mem_ctrls1.readBursts                   388214                       # Number of DRAM read bursts, including those serviced by the write queue
system.mem_ctrls1.writeBursts                  214664                       # Number of DRAM write bursts, including those merged in the write queue
system.mem_ctrls1.bytesReadDRAM              24833472                       # Total number of bytes read from DRAM
system.mem_ctrls1.bytesReadWrQ                  12224                       # Total number of bytes read from write queue
system.mem_ctrls1.bytesWritten               13738240                       # Total number of bytes written to DRAM
system.mem_ctrls1.bytesReadSys               24845696                       # Total read bytes from the system interface side
system.mem_ctrls1.bytesWrittenSys            13738496                       # Total written bytes from the system interface side
system.mem_ctrls1.servicedByWrQ                   191                       # Number of DRAM read bursts serviced by the write queue
system.mem_ctrls1.mergedWrBursts                    0                       # Number of DRAM write bursts merged with an existing one
system.mem_ctrls1.neitherReadNorWriteReqs            0                       # Number of requests that are neither read nor write
system.mem_ctrls1.perBankRdBursts::0            25863                       # Per bank write bursts
system.mem_ctrls1.perBankRdBursts::1            21840                       # Per bank write bursts
system.mem_ctrls1.perBankRdBursts::2            20849                       # Per bank write bursts
system.mem_ctrls1.perBankRdBursts::3            23606                       # Per bank write bursts
system.mem_ctrls1.perBankRdBursts::4            22334                       # Per bank write bursts
system.mem_ctrls1.perBankRdBursts::5            21081                       # Per bank write bursts
system.mem_ctrls1.perBankRdBursts::6            24490                       # Per bank write bursts
system.mem_ctrls1.perBankRdBursts::7            26287                       # Per bank write bursts
system.mem_ctrls1.perBankRdBursts::8            22582                       # Per bank write bursts
system.mem_ctrls1.perBankRdBursts::9            25118                       # Per bank write bursts
system.mem_ctrls1.perBankRdBursts::10           26112                       # Per bank write bursts
system.mem_ctrls1.perBankRdBursts::11           23416                       # Per bank write bursts
system.mem_ctrls1.perBankRdBursts::12           26017                       # Per bank write bursts
system.mem_ctrls1.perBankRdBursts::13           28599                       # Per bank write bursts
system.mem_ctrls1.perBankRdBursts::14           24677                       # Per bank write bursts
system.mem_ctrls1.perBankRdBursts::15           25152                       # Per bank write bursts
system.mem_ctrls1.perBankWrBursts::0            14358                       # Per bank write bursts
system.mem_ctrls1.perBankWrBursts::1            12644                       # Per bank write bursts
system.mem_ctrls1.perBankWrBursts::2            12152                       # Per bank write bursts
system.mem_ctrls1.perBankWrBursts::3            13180                       # Per bank write bursts
system.mem_ctrls1.perBankWrBursts::4            12373                       # Per bank write bursts
system.mem_ctrls1.perBankWrBursts::5            11983                       # Per bank write bursts
system.mem_ctrls1.perBankWrBursts::6            13590                       # Per bank write bursts
system.mem_ctrls1.perBankWrBursts::7            14173                       # Per bank write bursts
system.mem_ctrls1.perBankWrBursts::8            12796                       # Per bank write bursts
system.mem_ctrls1.perBankWrBursts::9            14059                       # Per bank write bursts
system.mem_ctrls1.perBankWrBursts::10           14306                       # Per bank write bursts
system.mem_ctrls1.perBankWrBursts::11           12930                       # Per bank write bursts
system.mem_ctrls1.perBankWrBursts::12           13950                       # Per bank write bursts
system.mem_ctrls1.perBankWrBursts::13           14970                       # Per bank write bursts
system.mem_ctrls1.perBankWrBursts::14           13381                       # Per bank write bursts
system.mem_ctrls1.perBankWrBursts::15           13815                       # Per bank write bursts
system.mem_ctrls1.numRdRetry                        0                       # Number of times read queue was full causing retry
system.mem_ctrls1.numWrRetry                        0                       # Number of times write queue was full causing retry
system.mem_ctrls1.totGap                 2364430343500                       # Total gap between requests
system.mem_ctrls1.readPktSize::0                    0                       # Read request sizes (log2)
system.mem_ctrls1.readPktSize::1                    0                       # Read request sizes (log2)
system.mem_ctrls1.readPktSize::2                    0                       # Read request sizes (log2)
system.mem_ctrls1.readPktSize::3                    0                       # Read request sizes (log2)
system.mem_ctrls1.readPktSize::4                    0                       # Read request sizes (log2)
system.mem_ctrls1.readPktSize::5                    0                       # Read request sizes (log2)
system.mem_ctrls1.readPktSize::6               388214                       # Read request sizes (log2)
system.mem_ctrls1.writePktSize::0                   0                       # Write request sizes (log2)
system.mem_ctrls1.writePktSize::1                   0                       # Write request sizes (log2)
system.mem_ctrls1.writePktSize::2                   0                       # Write request sizes (log2)
system.mem_ctrls1.writePktSize::3                   0                       # Write request sizes (log2)
system.mem_ctrls1.writePktSize::4                   0                       # Write request sizes (log2)
system.mem_ctrls1.writePktSize::5                   0                       # Write request sizes (log2)
system.mem_ctrls1.writePktSize::6              214664                       # Write request sizes (log2)
system.mem_ctrls1.rdQLenPdf::0                 387938                       # What read queue length does an incoming req see
system.mem_ctrls1.rdQLenPdf::1                     84                       # What read queue length does an incoming req see
system.mem_ctrls1.rdQLenPdf::2                      1                       # What read queue length does an incoming req see
system.mem_ctrls1.rdQLenPdf::3                      0                       # What read queue length does an incoming req see
system.mem_ctrls1.rdQLenPdf::4                      0                       # What read queue length does an incoming req see
system.mem_ctrls1.rdQLenPdf::5                      0                       # What read queue length does an incoming req see
system.mem_ctrls1.rdQLenPdf::6                      0                       # What read queue length does an incoming req see
system.mem_ctrls1.rdQLenPdf::7                      0                       # What read queue length does an incoming req see
system.mem_ctrls1.rdQLenPdf::8                      0                       # What read queue length does an incoming req see
system.mem_ctrls1.rdQLenPdf::9                      0                       # What read queue length does an incoming req see
system.mem_ctrls1.rdQLenPdf::10                     0                       # What read queue length does an incoming req see
system.mem_ctrls1.rdQLenPdf::11                     0                       # What read queue length does an incoming req see
system.mem_ctrls1.rdQLenPdf::12                     0                       # What read queue length does an incoming req see
system.mem_ctrls1.rdQLenPdf::13                     0                       # What read queue length does an incoming req see
system.mem_ctrls1.rdQLenPdf::14                     0                       # What read queue length does an incoming req see
system.mem_ctrls1.rdQLenPdf::15                     0                       # What read queue length does an incoming req see
system.mem_ctrls1.rdQLenPdf::16                     0                       # What read queue length does an incoming req see
system.mem_ctrls1.rdQLenPdf::17                     0                       # What read queue length does an incoming req see
system.mem_ctrls1.rdQLenPdf::18                     0                       # What read queue length does an incoming req see
system.mem_ctrls1.rdQLenPdf::19                     0                       # What read queue length does an incoming req see
system.mem_ctrls1.rdQLenPdf::20                     0                       # What read queue length does an incoming req see
system.mem_ctrls1.rdQLenPdf::21                     0                       # What read queue length does an incoming req see
system.mem_ctrls1.rdQLenPdf::22                     0                       # What read queue length does an incoming req see
system.mem_ctrls1.rdQLenPdf::23                     0                       # What read queue length does an incoming req see
system.mem_ctrls1.rdQLenPdf::24                     0                       # What read queue length does an incoming req see
system.mem_ctrls1.rdQLenPdf::25                     0                       # What read queue length does an incoming req see
system.mem_ctrls1.rdQLenPdf::26                     0                       # What read queue length does an incoming req see
system.mem_ctrls1.rdQLenPdf::27                     0                       # What read queue length does an incoming req see
system.mem_ctrls1.rdQLenPdf::28                     0                       # What read queue length does an incoming req see
system.mem_ctrls1.rdQLenPdf::29                     0                       # What read queue length does an incoming req see
system.mem_ctrls1.rdQLenPdf::30                     0                       # What read queue length does an incoming req see
system.mem_ctrls1.rdQLenPdf::31                     0                       # What read queue length does an incoming req see
system.mem_ctrls1.wrQLenPdf::0                      0                       # What write queue length does an incoming req see
system.mem_ctrls1.wrQLenPdf::1                      0                       # What write queue length does an incoming req see
system.mem_ctrls1.wrQLenPdf::2                      0                       # What write queue length does an incoming req see
system.mem_ctrls1.wrQLenPdf::3                      0                       # What write queue length does an incoming req see
system.mem_ctrls1.wrQLenPdf::4                      0                       # What write queue length does an incoming req see
system.mem_ctrls1.wrQLenPdf::5                      0                       # What write queue length does an incoming req see
system.mem_ctrls1.wrQLenPdf::6                      0                       # What write queue length does an incoming req see
system.mem_ctrls1.wrQLenPdf::7                      0                       # What write queue length does an incoming req see
system.mem_ctrls1.wrQLenPdf::8                      0                       # What write queue length does an incoming req see
system.mem_ctrls1.wrQLenPdf::9                      0                       # What write queue length does an incoming req see
system.mem_ctrls1.wrQLenPdf::10                     0                       # What write queue length does an incoming req see
system.mem_ctrls1.wrQLenPdf::11                     0                       # What write queue length does an incoming req see
system.mem_ctrls1.wrQLenPdf::12                     0                       # What write queue length does an incoming req see
system.mem_ctrls1.wrQLenPdf::13                     0                       # What write queue length does an incoming req see
system.mem_ctrls1.wrQLenPdf::14                     0                       # What write queue length does an incoming req see
system.mem_ctrls1.wrQLenPdf::15                 11340                       # What write queue length does an incoming req see
system.mem_ctrls1.wrQLenPdf::16                 11407                       # What write queue length does an incoming req see
system.mem_ctrls1.wrQLenPdf::17                 11954                       # What write queue length does an incoming req see
system.mem_ctrls1.wrQLenPdf::18                 11991                       # What write queue length does an incoming req see
system.mem_ctrls1.wrQLenPdf::19                 11995                       # What write queue length does an incoming req see
system.mem_ctrls1.wrQLenPdf::20                 12000                       # What write queue length does an incoming req see
system.mem_ctrls1.wrQLenPdf::21                 12010                       # What write queue length does an incoming req see
system.mem_ctrls1.wrQLenPdf::22                 11999                       # What write queue length does an incoming req see
system.mem_ctrls1.wrQLenPdf::23                 11999                       # What write queue length does an incoming req see
system.mem_ctrls1.wrQLenPdf::24                 11999                       # What write queue length does an incoming req see
system.mem_ctrls1.wrQLenPdf::25                 11996                       # What write queue length does an incoming req see
system.mem_ctrls1.wrQLenPdf::26                 12002                       # What write queue length does an incoming req see
system.mem_ctrls1.wrQLenPdf::27                 11997                       # What write queue length does an incoming req see
system.mem_ctrls1.wrQLenPdf::28                 11996                       # What write queue length does an incoming req see
system.mem_ctrls1.wrQLenPdf::29                 11998                       # What write queue length does an incoming req see
system.mem_ctrls1.wrQLenPdf::30                 11992                       # What write queue length does an incoming req see
system.mem_ctrls1.wrQLenPdf::31                 11992                       # What write queue length does an incoming req see
system.mem_ctrls1.wrQLenPdf::32                 11991                       # What write queue length does an incoming req see
system.mem_ctrls1.wrQLenPdf::33                     5                       # What write queue length does an incoming req see
system.mem_ctrls1.wrQLenPdf::34                     1                       # What write queue length does an incoming req see
system.mem_ctrls1.wrQLenPdf::35                     0                       # What write queue length does an incoming req see
system.mem_ctrls1.wrQLenPdf::36                     0                       # What write queue length does an incoming req see
system.mem_ctrls1.wrQLenPdf::37                     0                       # What write queue length does an incoming req see
system.mem_ctrls1.wrQLenPdf::38                     0                       # What write queue length does an incoming req see
system.mem_ctrls1.wrQLenPdf::39                     0                       # What write queue length does an incoming req see
system.mem_ctrls1.wrQLenPdf::40                     0                       # What write queue length does an incoming req see
system.mem_ctrls1.wrQLenPdf::41                     0                       # What write queue length does an incoming req see
system.mem_ctrls1.wrQLenPdf::42                     0                       # What write queue length does an incoming req see
system.mem_ctrls1.wrQLenPdf::43                     0                       # What write queue length does an incoming req see
system.mem_ctrls1.wrQLenPdf::44                     0                       # What write queue length does an incoming req see
system.mem_ctrls1.wrQLenPdf::45                     0                       # What write queue length does an incoming req see
system.mem_ctrls1.wrQLenPdf::46                     0                       # What write queue length does an incoming req see
system.mem_ctrls1.wrQLenPdf::47                     0                       # What write queue length does an incoming req see
system.mem_ctrls1.wrQLenPdf::48                     0                       # What write queue length does an incoming req see
system.mem_ctrls1.wrQLenPdf::49                     0                       # What write queue length does an incoming req see
system.mem_ctrls1.wrQLenPdf::50                     0                       # What write queue length does an incoming req see
system.mem_ctrls1.wrQLenPdf::51                     0                       # What write queue length does an incoming req see
system.mem_ctrls1.wrQLenPdf::52                     0                       # What write queue length does an incoming req see
system.mem_ctrls1.wrQLenPdf::53                     0                       # What write queue length does an incoming req see
system.mem_ctrls1.wrQLenPdf::54                     0                       # What write queue length does an incoming req see
system.mem_ctrls1.wrQLenPdf::55                     0                       # What write queue length does an incoming req see
system.mem_ctrls1.wrQLenPdf::56                     0                       # What write queue length does an incoming req see
system.mem_ctrls1.wrQLenPdf::57                     0                       # What write queue length does an incoming req see
system.mem_ctrls1.wrQLenPdf::58                     0                       # What write queue length does an incoming req see
system.mem_ctrls1.wrQLenPdf::59                     0                       # What write queue length does an incoming req see
system.mem_ctrls1.wrQLenPdf::60                     0                       # What write queue length does an incoming req see
system.mem_ctrls1.wrQLenPdf::61                     0                       # What write queue length does an incoming req see
system.mem_ctrls1.wrQLenPdf::62                     0                       # What write queue length does an incoming req see
system.mem_ctrls1.wrQLenPdf::63                     0                       # What write queue length does an incoming req see
system.mem_ctrls1.bytesPerActivate::samples       241099                       # Bytes accessed per row activation
system.mem_ctrls1.bytesPerActivate::mean   159.982878                       # Bytes accessed per row activation
system.mem_ctrls1.bytesPerActivate::gmean   111.059146                       # Bytes accessed per row activation
system.mem_ctrls1.bytesPerActivate::stdev   181.655879                       # Bytes accessed per row activation
system.mem_ctrls1.bytesPerActivate::0-127       134465     55.77%     55.77% # Bytes accessed per row activation
system.mem_ctrls1.bytesPerActivate::128-255        64125     26.60%     82.37% # Bytes accessed per row activation
system.mem_ctrls1.bytesPerActivate::256-383        14548      6.03%     88.40% # Bytes accessed per row activation
system.mem_ctrls1.bytesPerActivate::384-511         8828      3.66%     92.06% # Bytes accessed per row activation
system.mem_ctrls1.bytesPerActivate::512-639         9605      3.98%     96.05% # Bytes accessed per row activation
system.mem_ctrls1.bytesPerActivate::640-767         3929      1.63%     97.68% # Bytes accessed per row activation
system.mem_ctrls1.bytesPerActivate::768-895         1662      0.69%     98.37% # Bytes accessed per row activation
system.mem_ctrls1.bytesPerActivate::896-1023         1592      0.66%     99.03% # Bytes accessed per row activation
system.mem_ctrls1.bytesPerActivate::1024-1151         2345      0.97%    100.00% # Bytes accessed per row activation
system.mem_ctrls1.bytesPerActivate::total       241099                       # Bytes accessed per row activation
system.mem_ctrls1.rdPerTurnAround::samples        11991                       # Reads before turning the bus around for writes
system.mem_ctrls1.rdPerTurnAround::mean     32.357935                       # Reads before turning the bus around for writes
system.mem_ctrls1.rdPerTurnAround::stdev    40.459298                       # Reads before turning the bus around for writes
system.mem_ctrls1.rdPerTurnAround::0-127        11783     98.27%     98.27% # Reads before turning the bus around for writes
system.mem_ctrls1.rdPerTurnAround::128-255          143      1.19%     99.46% # Reads before turning the bus around for writes
system.mem_ctrls1.rdPerTurnAround::256-383           52      0.43%     99.89% # Reads before turning the bus around for writes
system.mem_ctrls1.rdPerTurnAround::384-511            7      0.06%     99.95% # Reads before turning the bus around for writes
system.mem_ctrls1.rdPerTurnAround::512-639            2      0.02%     99.97% # Reads before turning the bus around for writes
system.mem_ctrls1.rdPerTurnAround::640-767            1      0.01%     99.97% # Reads before turning the bus around for writes
system.mem_ctrls1.rdPerTurnAround::1024-1151            1      0.01%     99.98% # Reads before turning the bus around for writes
system.mem_ctrls1.rdPerTurnAround::1280-1407            1      0.01%     99.99% # Reads before turning the bus around for writes
system.mem_ctrls1.rdPerTurnAround::2048-2175            1      0.01%    100.00% # Reads before turning the bus around for writes
system.mem_ctrls1.rdPerTurnAround::total        11991                       # Reads before turning the bus around for writes
system.mem_ctrls1.wrPerTurnAround::samples        11991                       # Writes before turning the bus around for reads
system.mem_ctrls1.wrPerTurnAround::mean     17.901760                       # Writes before turning the bus around for reads
system.mem_ctrls1.wrPerTurnAround::gmean    17.895800                       # Writes before turning the bus around for reads
system.mem_ctrls1.wrPerTurnAround::stdev     0.447053                       # Writes before turning the bus around for reads
system.mem_ctrls1.wrPerTurnAround::16             595      4.96%      4.96% # Writes before turning the bus around for reads
system.mem_ctrls1.wrPerTurnAround::17              56      0.47%      5.43% # Writes before turning the bus around for reads
system.mem_ctrls1.wrPerTurnAround::18           11276     94.04%     99.47% # Writes before turning the bus around for reads
system.mem_ctrls1.wrPerTurnAround::19              60      0.50%     99.97% # Writes before turning the bus around for reads
system.mem_ctrls1.wrPerTurnAround::20               4      0.03%    100.00% # Writes before turning the bus around for reads
system.mem_ctrls1.wrPerTurnAround::total        11991                       # Writes before turning the bus around for reads
system.mem_ctrls1.totQLat                  2858298250                       # Total ticks spent queuing
system.mem_ctrls1.totMemAccLat            10133729500                       # Total ticks spent from burst creation until serviced by the DRAM
system.mem_ctrls1.totBusLat                1940115000                       # Total ticks spent in databus transfers
system.mem_ctrls1.avgQLat                     7366.31                       # Average queueing delay per DRAM burst
system.mem_ctrls1.avgBusLat                   5000.00                       # Average bus latency per DRAM burst
system.mem_ctrls1.avgMemAccLat               26116.31                       # Average memory access latency per DRAM burst
system.mem_ctrls1.avgRdBW                       10.50                       # Average DRAM read bandwidth in MiByte/s
system.mem_ctrls1.avgWrBW                        5.81                       # Average achieved write bandwidth in MiByte/s
system.mem_ctrls1.avgRdBWSys                    10.51                       # Average system read bandwidth in MiByte/s
system.mem_ctrls1.avgWrBWSys                     5.81                       # Average system write bandwidth in MiByte/s
system.mem_ctrls1.peakBW                     12800.00                       # Theoretical peak bandwidth in MiByte/s
system.mem_ctrls1.busUtil                        0.13                       # Data bus utilization in percentage
system.mem_ctrls1.busUtilRead                    0.08                       # Data bus utilization in percentage for reads
system.mem_ctrls1.busUtilWrite                   0.05                       # Data bus utilization in percentage for writes
system.mem_ctrls1.avgRdQLen                      1.00                       # Average read queue length when enqueuing
system.mem_ctrls1.avgWrQLen                     24.52                       # Average write queue length when enqueuing
system.mem_ctrls1.readRowHits                  280661                       # Number of row buffer hits during reads
system.mem_ctrls1.writeRowHits                  80923                       # Number of row buffer hits during writes
system.mem_ctrls1.readRowHitRate                72.33                       # Row buffer hit rate for reads
system.mem_ctrls1.writeRowHitRate               37.70                       # Row buffer hit rate for writes
system.mem_ctrls1.avgGap                   3921905.17                       # Average gap between requests
system.mem_ctrls1.pageHitRate                   60.00                       # Row buffer hit rate, read and write combined
system.mem_ctrls1_0.actEnergy               887181120                       # Energy for activate commands per rank (pJ)
system.mem_ctrls1_0.preEnergy               484077000                       # Energy for precharge commands per rank (pJ)
system.mem_ctrls1_0.readEnergy             1510961400                       # Energy for read commands per rank (pJ)
system.mem_ctrls1_0.writeEnergy             681022080                       # Energy for write commands per rank (pJ)
system.mem_ctrls1_0.refreshEnergy        155242008480                       # Energy for refresh commands per rank (pJ)
system.mem_ctrls1_0.actBackEnergy        181621181925                       # Energy for active background per rank (pJ)
system.mem_ctrls1_0.preBackEnergy        1266772391250                       # Energy for precharge background per rank (pJ)
system.mem_ctrls1_0.totalEnergy          1607198823255                       # Total energy per rank (pJ)
system.mem_ctrls1_0.averagePower           676.198433                       # Core power per rank (mW)
system.mem_ctrls1_0.memoryStateTime::IDLE 2099452145000                       # Time in different power states
system.mem_ctrls1_0.memoryStateTime::REF  78953680000                       # Time in different power states
system.mem_ctrls1_0.memoryStateTime::PRE_PDN            0                       # Time in different power states
system.mem_ctrls1_0.memoryStateTime::ACT 186024518500                       # Time in different power states
system.mem_ctrls1_0.memoryStateTime::ACT_PDN            0                       # Time in different power states
system.mem_ctrls1_1.actEnergy               967097880                       # Energy for activate commands per rank (pJ)
system.mem_ctrls1_1.preEnergy               527682375                       # Energy for precharge commands per rank (pJ)
system.mem_ctrls1_1.readEnergy             1629217200                       # Energy for read commands per rank (pJ)
system.mem_ctrls1_1.writeEnergy             717776640                       # Energy for write commands per rank (pJ)
system.mem_ctrls1_1.refreshEnergy        155242008480                       # Energy for refresh commands per rank (pJ)
system.mem_ctrls1_1.actBackEnergy        194404759740                       # Energy for active background per rank (pJ)
system.mem_ctrls1_1.preBackEnergy        1255558726500                       # Energy for precharge background per rank (pJ)
system.mem_ctrls1_1.totalEnergy          1609047268815                       # Total energy per rank (pJ)
system.mem_ctrls1_1.averagePower           676.976131                       # Core power per rank (mW)
system.mem_ctrls1_1.memoryStateTime::IDLE 2081426887750                       # Time in different power states
system.mem_ctrls1_1.memoryStateTime::REF  78953680000                       # Time in different power states
system.mem_ctrls1_1.memoryStateTime::PRE_PDN            0                       # Time in different power states
system.mem_ctrls1_1.memoryStateTime::ACT 204054397250                       # Time in different power states
system.mem_ctrls1_1.memoryStateTime::ACT_PDN            0                       # Time in different power states
system.mem_ctrls2.bytes_read::ruby.dir_cntrl2     24823872                       # Number of bytes read from this memory
system.mem_ctrls2.bytes_read::total          24823872                       # Number of bytes read from this memory
system.mem_ctrls2.bytes_written::ruby.dir_cntrl2      9729536                       # Number of bytes written to this memory
system.mem_ctrls2.bytes_written::total        9729536                       # Number of bytes written to this memory
system.mem_ctrls2.num_reads::ruby.dir_cntrl2       387873                       # Number of read requests responded to by this memory
system.mem_ctrls2.num_reads::total             387873                       # Number of read requests responded to by this memory
system.mem_ctrls2.num_writes::ruby.dir_cntrl2       152024                       # Number of write requests responded to by this memory
system.mem_ctrls2.num_writes::total            152024                       # Number of write requests responded to by this memory
system.mem_ctrls2.bw_read::ruby.dir_cntrl2     10498880                       # Total read bandwidth from this memory (bytes/s)
system.mem_ctrls2.bw_read::total             10498880                       # Total read bandwidth from this memory (bytes/s)
system.mem_ctrls2.bw_write::ruby.dir_cntrl2      4114960                       # Write bandwidth from this memory (bytes/s)
system.mem_ctrls2.bw_write::total             4114960                       # Write bandwidth from this memory (bytes/s)
system.mem_ctrls2.bw_total::ruby.dir_cntrl2     14613839                       # Total bandwidth to/from this memory (bytes/s)
system.mem_ctrls2.bw_total::total            14613839                       # Total bandwidth to/from this memory (bytes/s)
system.mem_ctrls2.readReqs                     387873                       # Number of read requests accepted
system.mem_ctrls2.writeReqs                    152024                       # Number of write requests accepted
system.mem_ctrls2.readBursts                   387873                       # Number of DRAM read bursts, including those serviced by the write queue
system.mem_ctrls2.writeBursts                  152024                       # Number of DRAM write bursts, including those merged in the write queue
system.mem_ctrls2.bytesReadDRAM              24797248                       # Total number of bytes read from DRAM
system.mem_ctrls2.bytesReadWrQ                  26624                       # Total number of bytes read from write queue
system.mem_ctrls2.bytesWritten                9729216                       # Total number of bytes written to DRAM
system.mem_ctrls2.bytesReadSys               24823872                       # Total read bytes from the system interface side
system.mem_ctrls2.bytesWrittenSys             9729536                       # Total written bytes from the system interface side
system.mem_ctrls2.servicedByWrQ                   416                       # Number of DRAM read bursts serviced by the write queue
system.mem_ctrls2.mergedWrBursts                    1                       # Number of DRAM write bursts merged with an existing one
system.mem_ctrls2.neitherReadNorWriteReqs            0                       # Number of requests that are neither read nor write
system.mem_ctrls2.perBankRdBursts::0            26438                       # Per bank write bursts
system.mem_ctrls2.perBankRdBursts::1            21108                       # Per bank write bursts
system.mem_ctrls2.perBankRdBursts::2            19939                       # Per bank write bursts
system.mem_ctrls2.perBankRdBursts::3            23772                       # Per bank write bursts
system.mem_ctrls2.perBankRdBursts::4            22028                       # Per bank write bursts
system.mem_ctrls2.perBankRdBursts::5            20760                       # Per bank write bursts
system.mem_ctrls2.perBankRdBursts::6            24891                       # Per bank write bursts
system.mem_ctrls2.perBankRdBursts::7            26234                       # Per bank write bursts
system.mem_ctrls2.perBankRdBursts::8            21543                       # Per bank write bursts
system.mem_ctrls2.perBankRdBursts::9            25093                       # Per bank write bursts
system.mem_ctrls2.perBankRdBursts::10           27010                       # Per bank write bursts
system.mem_ctrls2.perBankRdBursts::11           23177                       # Per bank write bursts
system.mem_ctrls2.perBankRdBursts::12           26136                       # Per bank write bursts
system.mem_ctrls2.perBankRdBursts::13           29502                       # Per bank write bursts
system.mem_ctrls2.perBankRdBursts::14           24693                       # Per bank write bursts
system.mem_ctrls2.perBankRdBursts::15           25133                       # Per bank write bursts
system.mem_ctrls2.perBankWrBursts::0            10583                       # Per bank write bursts
system.mem_ctrls2.perBankWrBursts::1             8482                       # Per bank write bursts
system.mem_ctrls2.perBankWrBursts::2             7990                       # Per bank write bursts
system.mem_ctrls2.perBankWrBursts::3             9353                       # Per bank write bursts
system.mem_ctrls2.perBankWrBursts::4             8419                       # Per bank write bursts
system.mem_ctrls2.perBankWrBursts::5             8007                       # Per bank write bursts
system.mem_ctrls2.perBankWrBursts::6             9732                       # Per bank write bursts
system.mem_ctrls2.perBankWrBursts::7            10302                       # Per bank write bursts
system.mem_ctrls2.perBankWrBursts::8             8726                       # Per bank write bursts
system.mem_ctrls2.perBankWrBursts::9            10103                       # Per bank write bursts
system.mem_ctrls2.perBankWrBursts::10           10574                       # Per bank write bursts
system.mem_ctrls2.perBankWrBursts::11            8924                       # Per bank write bursts
system.mem_ctrls2.perBankWrBursts::12            9937                       # Per bank write bursts
system.mem_ctrls2.perBankWrBursts::13           11323                       # Per bank write bursts
system.mem_ctrls2.perBankWrBursts::14            9567                       # Per bank write bursts
system.mem_ctrls2.perBankWrBursts::15            9997                       # Per bank write bursts
system.mem_ctrls2.numRdRetry                        0                       # Number of times read queue was full causing retry
system.mem_ctrls2.numWrRetry                        0                       # Number of times write queue was full causing retry
system.mem_ctrls2.totGap                 2364433245000                       # Total gap between requests
system.mem_ctrls2.readPktSize::0                    0                       # Read request sizes (log2)
system.mem_ctrls2.readPktSize::1                    0                       # Read request sizes (log2)
system.mem_ctrls2.readPktSize::2                    0                       # Read request sizes (log2)
system.mem_ctrls2.readPktSize::3                    0                       # Read request sizes (log2)
system.mem_ctrls2.readPktSize::4                    0                       # Read request sizes (log2)
system.mem_ctrls2.readPktSize::5                    0                       # Read request sizes (log2)
system.mem_ctrls2.readPktSize::6               387873                       # Read request sizes (log2)
system.mem_ctrls2.writePktSize::0                   0                       # Write request sizes (log2)
system.mem_ctrls2.writePktSize::1                   0                       # Write request sizes (log2)
system.mem_ctrls2.writePktSize::2                   0                       # Write request sizes (log2)
system.mem_ctrls2.writePktSize::3                   0                       # Write request sizes (log2)
system.mem_ctrls2.writePktSize::4                   0                       # Write request sizes (log2)
system.mem_ctrls2.writePktSize::5                   0                       # Write request sizes (log2)
system.mem_ctrls2.writePktSize::6              152024                       # Write request sizes (log2)
system.mem_ctrls2.rdQLenPdf::0                 387386                       # What read queue length does an incoming req see
system.mem_ctrls2.rdQLenPdf::1                     71                       # What read queue length does an incoming req see
system.mem_ctrls2.rdQLenPdf::2                      0                       # What read queue length does an incoming req see
system.mem_ctrls2.rdQLenPdf::3                      0                       # What read queue length does an incoming req see
system.mem_ctrls2.rdQLenPdf::4                      0                       # What read queue length does an incoming req see
system.mem_ctrls2.rdQLenPdf::5                      0                       # What read queue length does an incoming req see
system.mem_ctrls2.rdQLenPdf::6                      0                       # What read queue length does an incoming req see
system.mem_ctrls2.rdQLenPdf::7                      0                       # What read queue length does an incoming req see
system.mem_ctrls2.rdQLenPdf::8                      0                       # What read queue length does an incoming req see
system.mem_ctrls2.rdQLenPdf::9                      0                       # What read queue length does an incoming req see
system.mem_ctrls2.rdQLenPdf::10                     0                       # What read queue length does an incoming req see
system.mem_ctrls2.rdQLenPdf::11                     0                       # What read queue length does an incoming req see
system.mem_ctrls2.rdQLenPdf::12                     0                       # What read queue length does an incoming req see
system.mem_ctrls2.rdQLenPdf::13                     0                       # What read queue length does an incoming req see
system.mem_ctrls2.rdQLenPdf::14                     0                       # What read queue length does an incoming req see
system.mem_ctrls2.rdQLenPdf::15                     0                       # What read queue length does an incoming req see
system.mem_ctrls2.rdQLenPdf::16                     0                       # What read queue length does an incoming req see
system.mem_ctrls2.rdQLenPdf::17                     0                       # What read queue length does an incoming req see
system.mem_ctrls2.rdQLenPdf::18                     0                       # What read queue length does an incoming req see
system.mem_ctrls2.rdQLenPdf::19                     0                       # What read queue length does an incoming req see
system.mem_ctrls2.rdQLenPdf::20                     0                       # What read queue length does an incoming req see
system.mem_ctrls2.rdQLenPdf::21                     0                       # What read queue length does an incoming req see
system.mem_ctrls2.rdQLenPdf::22                     0                       # What read queue length does an incoming req see
system.mem_ctrls2.rdQLenPdf::23                     0                       # What read queue length does an incoming req see
system.mem_ctrls2.rdQLenPdf::24                     0                       # What read queue length does an incoming req see
system.mem_ctrls2.rdQLenPdf::25                     0                       # What read queue length does an incoming req see
system.mem_ctrls2.rdQLenPdf::26                     0                       # What read queue length does an incoming req see
system.mem_ctrls2.rdQLenPdf::27                     0                       # What read queue length does an incoming req see
system.mem_ctrls2.rdQLenPdf::28                     0                       # What read queue length does an incoming req see
system.mem_ctrls2.rdQLenPdf::29                     0                       # What read queue length does an incoming req see
system.mem_ctrls2.rdQLenPdf::30                     0                       # What read queue length does an incoming req see
system.mem_ctrls2.rdQLenPdf::31                     0                       # What read queue length does an incoming req see
system.mem_ctrls2.wrQLenPdf::0                      0                       # What write queue length does an incoming req see
system.mem_ctrls2.wrQLenPdf::1                      0                       # What write queue length does an incoming req see
system.mem_ctrls2.wrQLenPdf::2                      0                       # What write queue length does an incoming req see
system.mem_ctrls2.wrQLenPdf::3                      0                       # What write queue length does an incoming req see
system.mem_ctrls2.wrQLenPdf::4                      0                       # What write queue length does an incoming req see
system.mem_ctrls2.wrQLenPdf::5                      0                       # What write queue length does an incoming req see
system.mem_ctrls2.wrQLenPdf::6                      0                       # What write queue length does an incoming req see
system.mem_ctrls2.wrQLenPdf::7                      0                       # What write queue length does an incoming req see
system.mem_ctrls2.wrQLenPdf::8                      0                       # What write queue length does an incoming req see
system.mem_ctrls2.wrQLenPdf::9                      0                       # What write queue length does an incoming req see
system.mem_ctrls2.wrQLenPdf::10                     0                       # What write queue length does an incoming req see
system.mem_ctrls2.wrQLenPdf::11                     0                       # What write queue length does an incoming req see
system.mem_ctrls2.wrQLenPdf::12                     0                       # What write queue length does an incoming req see
system.mem_ctrls2.wrQLenPdf::13                     0                       # What write queue length does an incoming req see
system.mem_ctrls2.wrQLenPdf::14                     0                       # What write queue length does an incoming req see
system.mem_ctrls2.wrQLenPdf::15                  7721                       # What write queue length does an incoming req see
system.mem_ctrls2.wrQLenPdf::16                  7756                       # What write queue length does an incoming req see
system.mem_ctrls2.wrQLenPdf::17                  8524                       # What write queue length does an incoming req see
system.mem_ctrls2.wrQLenPdf::18                  8538                       # What write queue length does an incoming req see
system.mem_ctrls2.wrQLenPdf::19                  8537                       # What write queue length does an incoming req see
system.mem_ctrls2.wrQLenPdf::20                  8535                       # What write queue length does an incoming req see
system.mem_ctrls2.wrQLenPdf::21                  8534                       # What write queue length does an incoming req see
system.mem_ctrls2.wrQLenPdf::22                  8534                       # What write queue length does an incoming req see
system.mem_ctrls2.wrQLenPdf::23                  8535                       # What write queue length does an incoming req see
system.mem_ctrls2.wrQLenPdf::24                  8533                       # What write queue length does an incoming req see
system.mem_ctrls2.wrQLenPdf::25                  8537                       # What write queue length does an incoming req see
system.mem_ctrls2.wrQLenPdf::26                  8535                       # What write queue length does an incoming req see
system.mem_ctrls2.wrQLenPdf::27                  8535                       # What write queue length does an incoming req see
system.mem_ctrls2.wrQLenPdf::28                  8537                       # What write queue length does an incoming req see
system.mem_ctrls2.wrQLenPdf::29                  8536                       # What write queue length does an incoming req see
system.mem_ctrls2.wrQLenPdf::30                  8532                       # What write queue length does an incoming req see
system.mem_ctrls2.wrQLenPdf::31                  8532                       # What write queue length does an incoming req see
system.mem_ctrls2.wrQLenPdf::32                  8532                       # What write queue length does an incoming req see
system.mem_ctrls2.wrQLenPdf::33                     0                       # What write queue length does an incoming req see
[...]
system.ruby.L1Cache_Controller.S.Fwd_GETS::total         6189                      
system.ruby.L1Cache_Controller.S.Inv     |         558      4.84%      4.84% |        3970     34.46%     39.30% |        5024     43.60%     82.90% |        1970     17.10%    100.00%
system.ruby.L1Cache_Controller.S.Inv::total        11522                      
system.ruby.L1Cache_Controller.O.Load    |         166      1.38%      1.38% |        4513     37.43%     38.81% |        1383     11.47%     50.28% |        5994     49.72%    100.00%
system.ruby.L1Cache_Controller.O.Load::total        12056                      
system.ruby.L1Cache_Controller.O.Store   |          32     20.38%     20.38% |          71     45.22%     65.61% |          32     20.38%     85.99% |          22     14.01%    100.00%
system.ruby.L1Cache_Controller.O.Store::total          157                      
system.ruby.L1Cache_Controller.O.L1_Replacement |         149     15.31%     15.31% |         304     31.24%     46.56% |         208     21.38%     67.93% |         312     32.07%    100.00%
system.ruby.L1Cache_Controller.O.L1_Replacement::total          973                      
system.ruby.L1Cache_Controller.O.Fwd_GETX |         197      1.66%      1.66% |        3368     28.46%     30.13% |        2837     23.98%     54.10% |        5431     45.90%    100.00%
system.ruby.L1Cache_Controller.O.Fwd_GETX::total        11833                      
system.ruby.L1Cache_Controller.O.Fwd_GETS |         248      2.31%      2.31% |        2394     22.28%     24.59% |        1723     16.04%     40.62% |        6380     59.38%    100.00%
system.ruby.L1Cache_Controller.O.Fwd_GETS::total        10745                      
system.ruby.L1Cache_Controller.M.Load    |    18012447     90.56%     90.56% |     1769741      8.90%     99.46% |       46016      0.23%     99.69% |       61522      0.31%    100.00%
system.ruby.L1Cache_Controller.M.Load::total     19889726                      
system.ruby.L1Cache_Controller.M.Store   |       20316     24.88%     24.88% |       55659     68.18%     93.06% |        2911      3.57%     96.63% |        2755      3.37%    100.00%
system.ruby.L1Cache_Controller.M.Store::total        81641                      
system.ruby.L1Cache_Controller.M.L1_Replacement |       51184     51.97%     51.97% |       36903     37.47%     89.45% |        4354      4.42%     93.87% |        6038      6.13%    100.00%
system.ruby.L1Cache_Controller.M.L1_Replacement::total        98479                      
system.ruby.L1Cache_Controller.M.Fwd_GETX |          88      6.03%      6.03% |         657     45.00%     51.03% |         431     29.52%     80.55% |         284     19.45%    100.00%
system.ruby.L1Cache_Controller.M.Fwd_GETX::total         1460                      
system.ruby.L1Cache_Controller.M.Fwd_GETS |         361      2.81%      2.81% |        3764     29.28%     32.09% |        3070     23.88%     55.97% |        5661     44.03%    100.00%
system.ruby.L1Cache_Controller.M.Fwd_GETS::total        12856                      
system.ruby.L1Cache_Controller.M_W.Load  |      212455     59.97%     59.97% |      123649     34.90%     94.88% |        7257      2.05%     96.93% |       10893      3.07%    100.00%
system.ruby.L1Cache_Controller.M_W.Load::total       354254                      
system.ruby.L1Cache_Controller.M_W.Store |      179804     91.05%     91.05% |       13799      6.99%     98.03% |        1007      0.51%     98.54% |        2879      1.46%    100.00%
system.ruby.L1Cache_Controller.M_W.Store::total       197489                      
system.ruby.L1Cache_Controller.M_W.L1_Replacement |          20     71.43%     71.43% |           5     17.86%     89.29% |           3     10.71%    100.00% |           0      0.00%    100.00%
system.ruby.L1Cache_Controller.M_W.L1_Replacement::total           28                      
system.ruby.L1Cache_Controller.M_W.Fwd_GETX |          18     85.71%     85.71% |           0      0.00%     85.71% |           3     14.29%    100.00% |           0      0.00%    100.00%
system.ruby.L1Cache_Controller.M_W.Fwd_GETX::total           21                      
system.ruby.L1Cache_Controller.M_W.Fwd_GETS |          90     50.28%     50.28% |          28     15.64%     65.92% |          52     29.05%     94.97% |           9      5.03%    100.00%
system.ruby.L1Cache_Controller.M_W.Fwd_GETS::total          179                      
system.ruby.L1Cache_Controller.M_W.Use_Timeout |       71913     36.98%     36.98% |       96904     49.83%     86.81% |       10881      5.60%     92.41% |       14764      7.59%    100.00%
system.ruby.L1Cache_Controller.M_W.Use_Timeout::total       194462                      
system.ruby.L1Cache_Controller.MM.Load   |    59845255     78.10%     78.10% |    15669124     20.45%     98.55% |      530050      0.69%     99.24% |      584093      0.76%    100.00%
system.ruby.L1Cache_Controller.MM.Load::total     76628522                      
system.ruby.L1Cache_Controller.MM.Store  |    38391467     73.75%     73.75% |    12471210     23.96%     97.70% |      549282      1.06%     98.76% |      647529      1.24%    100.00%
system.ruby.L1Cache_Controller.MM.Store::total     52059488                      
system.ruby.L1Cache_Controller.MM.L1_Replacement |      932299     78.63%     78.63% |      202644     17.09%     95.72% |       13511      1.14%     96.86% |       37192      3.14%    100.00%
system.ruby.L1Cache_Controller.MM.L1_Replacement::total      1185646                      
system.ruby.L1Cache_Controller.MM.Fwd_GETX |         360     15.82%     15.82% |         696     30.59%     46.42% |         686     30.15%     76.57% |         533     23.43%    100.00%
system.ruby.L1Cache_Controller.MM.Fwd_GETX::total         2275                      
system.ruby.L1Cache_Controller.MM.Fwd_GETS |        4968     37.98%     37.98% |        3014     23.04%     61.02% |        2544     19.45%     80.46% |        2556     19.54%    100.00%
system.ruby.L1Cache_Controller.MM.Fwd_GETS::total        13082                      
system.ruby.L1Cache_Controller.MM.Fwd_DMA |          33     20.50%     20.50% |          94     58.39%     78.88% |          15      9.32%     88.20% |          19     11.80%    100.00%
system.ruby.L1Cache_Controller.MM.Fwd_DMA::total          161                      
system.ruby.L1Cache_Controller.MM_W.Load |       48383     59.59%     59.59% |       17001     20.94%     80.52% |        1091      1.34%     81.87% |       14723     18.13%    100.00%
system.ruby.L1Cache_Controller.MM_W.Load::total        81198                      
system.ruby.L1Cache_Controller.MM_W.Store |      756728     63.66%     63.66% |      248755     20.93%     84.59% |       53813      4.53%     89.12% |      129357     10.88%    100.00%
system.ruby.L1Cache_Controller.MM_W.Store::total      1188653                      
system.ruby.L1Cache_Controller.MM_W.Fwd_GETX |           1     16.67%     16.67% |           2     33.33%     50.00% |           3     50.00%    100.00% |           0      0.00%    100.00%
system.ruby.L1Cache_Controller.MM_W.Fwd_GETX::total            6                      
system.ruby.L1Cache_Controller.MM_W.Fwd_GETS |         110     40.44%     40.44% |          41     15.07%     55.51% |          99     36.40%     91.91% |          22      8.09%    100.00%
system.ruby.L1Cache_Controller.MM_W.Fwd_GETS::total          272                      
system.ruby.L1Cache_Controller.MM_W.Use_Timeout |      917489     81.96%     81.96% |      150468     13.44%     95.41% |       14162      1.27%     96.67% |       37258      3.33%    100.00%
system.ruby.L1Cache_Controller.MM_W.Use_Timeout::total      1119377                      
system.ruby.L1Cache_Controller.IM.Ack    |        5639     43.57%     43.57% |        2810     21.71%     65.29% |        2260     17.46%     82.75% |        2232     17.25%    100.00%
system.ruby.L1Cache_Controller.IM.Ack::total        12941                      
system.ruby.L1Cache_Controller.IM.Exclusive_Data |      485201     81.44%     81.44% |       85381     14.33%     95.77% |       11170      1.87%     97.65% |       14013      2.35%    100.00%
system.ruby.L1Cache_Controller.IM.Exclusive_Data::total       595765                      
system.ruby.L1Cache_Controller.SM.Ack    |        7441     62.17%     62.17% |        2198     18.36%     80.53% |        1490     12.45%     92.98% |         840      7.02%    100.00%
system.ruby.L1Cache_Controller.SM.Ack::total        11969                      
system.ruby.L1Cache_Controller.SM.Exclusive_Data |      252452     77.45%     77.45% |       51217     15.71%     93.16% |        1953      0.60%     93.76% |       20344      6.24%    100.00%
system.ruby.L1Cache_Controller.SM.Exclusive_Data::total       325966                      
system.ruby.L1Cache_Controller.OM.Own_GETX |          32     20.38%     20.38% |          71     45.22%     65.61% |          32     20.38%     85.99% |          22     14.01%    100.00%
system.ruby.L1Cache_Controller.OM.Own_GETX::total          157                      
system.ruby.L1Cache_Controller.OM.Ack    |         934     39.97%     39.97% |         650     27.81%     67.78% |         604     25.85%     93.62% |         149      6.38%    100.00%
system.ruby.L1Cache_Controller.OM.Ack::total         2337                      
system.ruby.L1Cache_Controller.OM.All_acks |      737685     80.02%     80.02% |      136669     14.82%     94.84% |       13155      1.43%     96.27% |       34379      3.73%    100.00%
system.ruby.L1Cache_Controller.OM.All_acks::total       921888                      
system.ruby.L1Cache_Controller.IS.Data   |     1348871     77.88%     77.88% |      252065     14.55%     92.44% |       56250      3.25%     95.69% |       74710      4.31%    100.00%
system.ruby.L1Cache_Controller.IS.Data::total      1731896                      
system.ruby.L1Cache_Controller.IS.Exclusive_Data |      251717     64.22%     64.22% |      110703     28.24%     92.47% |       11888      3.03%     95.50% |       17643      4.50%    100.00%
system.ruby.L1Cache_Controller.IS.Exclusive_Data::total       391951                      
system.ruby.L1Cache_Controller.SI.Load   |         107     47.98%     47.98% |         108     48.43%     96.41% |           0      0.00%     96.41% |           8      3.59%    100.00%
system.ruby.L1Cache_Controller.SI.Load::total          223                      
system.ruby.L1Cache_Controller.SI.Ifetch |           4    100.00%    100.00% |           0      0.00%    100.00% |           0      0.00%    100.00% |           0      0.00%    100.00%
system.ruby.L1Cache_Controller.SI.Ifetch::total            4                      
system.ruby.L1Cache_Controller.SI.Writeback_Ack |      563480     75.16%     75.16% |       98507     13.14%     88.29% |       44622      5.95%     94.25% |       43141      5.75%    100.00%
system.ruby.L1Cache_Controller.SI.Writeback_Ack::total       749750                      
system.ruby.L1Cache_Controller.SI.Writeback_Ack_Data |      532481     82.62%     82.62% |       98550     15.29%     97.91% |        4399      0.68%     98.60% |        9052      1.40%    100.00%
system.ruby.L1Cache_Controller.SI.Writeback_Ack_Data::total       644482                      
system.ruby.L1Cache_Controller.OI.Writeback_Ack_Data |         149     15.31%     15.31% |         304     31.24%     46.56% |         208     21.38%     67.93% |         312     32.07%    100.00%
system.ruby.L1Cache_Controller.OI.Writeback_Ack_Data::total          973                      
system.ruby.L1Cache_Controller.MI.Load   |          10      9.80%      9.80% |           1      0.98%     10.78% |          91     89.22%    100.00% |           0      0.00%    100.00%
system.ruby.L1Cache_Controller.MI.Load::total          102                      
system.ruby.L1Cache_Controller.MI.Writeback_Ack_Data |      983483     76.59%     76.59% |      239547     18.65%     95.24% |       17865      1.39%     96.63% |       43230      3.37%    100.00%
system.ruby.L1Cache_Controller.MI.Writeback_Ack_Data::total      1284125                      
system.ruby.L2Cache_Controller.L1_GETS        2124018      0.00%      0.00%
system.ruby.L2Cache_Controller.L1_GETX         921897      0.00%      0.00%
system.ruby.L2Cache_Controller.L1_PUTO            973      0.00%      0.00%
system.ruby.L2Cache_Controller.L1_PUTX        1284125      0.00%      0.00%
system.ruby.L2Cache_Controller.L1_PUTS_only      1255792      0.00%      0.00%
system.ruby.L2Cache_Controller.L1_PUTS         138449      0.00%      0.00%
system.ruby.L2Cache_Controller.Fwd_DMA            376      0.00%      0.00%
system.ruby.L2Cache_Controller.All_Acks        826637      0.00%      0.00%
system.ruby.L2Cache_Controller.Data           1768503      0.00%      0.00%
system.ruby.L2Cache_Controller.L1_WBCLEANDATA       644482      0.00%      0.00%
system.ruby.L2Cache_Controller.L1_WBDIRTYDATA      1285098      0.00%      0.00%
system.ruby.L2Cache_Controller.Writeback_Ack       829877      0.00%      0.00%
system.ruby.L2Cache_Controller.Unblock        2481646      0.00%      0.00%
system.ruby.L2Cache_Controller.Exclusive_Unblock      1313839      0.00%      0.00%
system.ruby.L2Cache_Controller.DmaAck             161      0.00%      0.00%
system.ruby.L2Cache_Controller.L2_Replacement      1450162      0.00%      0.00%
system.ruby.L2Cache_Controller.NP.L1_GETS       941866      0.00%      0.00%
system.ruby.L2Cache_Controller.NP.L1_GETX       502036      0.00%      0.00%
system.ruby.L2Cache_Controller.ILS.L1_GETS         6189      0.00%      0.00%
system.ruby.L2Cache_Controller.ILS.L1_GETX       305202      0.00%      0.00%
system.ruby.L2Cache_Controller.ILS.L1_PUTS_only       637443      0.00%      0.00%
system.ruby.L2Cache_Controller.ILS.L1_PUTS         7039      0.00%      0.00%
system.ruby.L2Cache_Controller.ILX.L1_GETS        25938      0.00%      0.00%
system.ruby.L2Cache_Controller.ILX.L1_GETX         3735      0.00%      0.00%
system.ruby.L2Cache_Controller.ILX.L1_PUTX      1284125      0.00%      0.00%
system.ruby.L2Cache_Controller.ILX.Fwd_DMA          161      0.00%      0.00%
system.ruby.L2Cache_Controller.ILOX.L1_GETS         3414      0.00%      0.00%
system.ruby.L2Cache_Controller.ILOX.L1_GETX         1051      0.00%      0.00%
system.ruby.L2Cache_Controller.ILOX.L1_PUTO          538      0.00%      0.00%
system.ruby.L2Cache_Controller.ILOSX.L1_GETS         7331      0.00%      0.00%
system.ruby.L2Cache_Controller.ILOSX.L1_GETX        10939      0.00%      0.00%
system.ruby.L2Cache_Controller.ILOSX.L1_PUTO          435      0.00%      0.00%
system.ruby.L2Cache_Controller.ILOSX.L1_PUTS_only         5000      0.00%      0.00%
system.ruby.L2Cache_Controller.ILOSX.L1_PUTS         1133      0.00%      0.00%
system.ruby.L2Cache_Controller.S.L1_GETS       628400      0.00%      0.00%
system.ruby.L2Cache_Controller.S.L1_GETX         5101      0.00%      0.00%
system.ruby.L2Cache_Controller.S.L2_Replacement       612534      0.00%      0.00%
system.ruby.L2Cache_Controller.OLSX.L1_GETS         1913      0.00%      0.00%
system.ruby.L2Cache_Controller.OLSX.L1_GETX          150      0.00%      0.00%
system.ruby.L2Cache_Controller.OLSX.L1_PUTS_only          219      0.00%      0.00%
system.ruby.L2Cache_Controller.OLSX.L1_PUTS         1821      0.00%      0.00%
system.ruby.L2Cache_Controller.OLSX.L2_Replacement           66      0.00%      0.00%
system.ruby.L2Cache_Controller.SLS.L1_GETS       129927      0.00%      0.00%
system.ruby.L2Cache_Controller.SLS.L1_GETX        14298      0.00%      0.00%
system.ruby.L2Cache_Controller.SLS.L1_PUTS_only       613126      0.00%      0.00%
system.ruby.L2Cache_Controller.SLS.L1_PUTS       128451      0.00%      0.00%
system.ruby.L2Cache_Controller.SLS.L2_Replacement         7751      0.00%      0.00%
system.ruby.L2Cache_Controller.M.L1_GETS       378869      0.00%      0.00%
system.ruby.L2Cache_Controller.M.L1_GETX        79376      0.00%      0.00%
system.ruby.L2Cache_Controller.M.Fwd_DMA          215      0.00%      0.00%
system.ruby.L2Cache_Controller.M.L2_Replacement       829811      0.00%      0.00%
system.ruby.L2Cache_Controller.ILOXW.L1_WBDIRTYDATA          538      0.00%      0.00%
system.ruby.L2Cache_Controller.ILOXW.Unblock         5000      0.00%      0.00%
system.ruby.L2Cache_Controller.ILOSXW.L1_WBDIRTYDATA          435      0.00%      0.00%
system.ruby.L2Cache_Controller.ILOSXW.Unblock         1133      0.00%      0.00%
system.ruby.L2Cache_Controller.SLSW.L1_GETS            3      0.00%      0.00%
system.ruby.L2Cache_Controller.SLSW.L1_PUTS            3      0.00%      0.00%
system.ruby.L2Cache_Controller.SLSW.Unblock       128451      0.00%      0.00%
system.ruby.L2Cache_Controller.ILSW.L1_PUTS            2      0.00%      0.00%
system.ruby.L2Cache_Controller.ILSW.L1_WBCLEANDATA         7039      0.00%      0.00%
system.ruby.L2Cache_Controller.IW.L1_WBCLEANDATA       637443      0.00%      0.00%
system.ruby.L2Cache_Controller.SW.L1_GETS            5      0.00%      0.00%
system.ruby.L2Cache_Controller.SW.Unblock       613126      0.00%      0.00%
system.ruby.L2Cache_Controller.OXW.Unblock          219      0.00%      0.00%
system.ruby.L2Cache_Controller.OLSXW.Unblock         1821      0.00%      0.00%
system.ruby.L2Cache_Controller.ILXW.L1_WBDIRTYDATA      1284125      0.00%      0.00%
system.ruby.L2Cache_Controller.IFLS.L1_GETS            3      0.00%      0.00%
system.ruby.L2Cache_Controller.IFLS.Unblock         6189      0.00%      0.00%
system.ruby.L2Cache_Controller.IFLOX.Unblock         3414      0.00%      0.00%
system.ruby.L2Cache_Controller.IFLOX.Exclusive_Unblock          150      0.00%      0.00%
system.ruby.L2Cache_Controller.IFLOXX.L1_GETS           61      0.00%      0.00%
system.ruby.L2Cache_Controller.IFLOXX.L1_GETX            8      0.00%      0.00%
system.ruby.L2Cache_Controller.IFLOXX.Unblock        12856      0.00%      0.00%
system.ruby.L2Cache_Controller.IFLOXX.Exclusive_Unblock        17868      0.00%      0.00%
system.ruby.L2Cache_Controller.IFLOSX.Unblock         7331      0.00%      0.00%
system.ruby.L2Cache_Controller.IFLXO.L1_GETS           50      0.00%      0.00%
system.ruby.L2Cache_Controller.IFLXO.L1_GETX            1      0.00%      0.00%
system.ruby.L2Cache_Controller.IFLXO.Exclusive_Unblock        10939      0.00%      0.00%
system.ruby.L2Cache_Controller.IGS.L1_GETS           44      0.00%      0.00%
system.ruby.L2Cache_Controller.IGS.Data        941866      0.00%      0.00%
system.ruby.L2Cache_Controller.IGS.Unblock       941866      0.00%      0.00%
system.ruby.L2Cache_Controller.IGM.Data        507137      0.00%      0.00%
system.ruby.L2Cache_Controller.IGMLS.Data       319500      0.00%      0.00%
system.ruby.L2Cache_Controller.IGMO.All_Acks       826637      0.00%      0.00%
system.ruby.L2Cache_Controller.IGMO.Exclusive_Unblock       826637      0.00%      0.00%
system.ruby.L2Cache_Controller.MM.Exclusive_Unblock        79376      0.00%      0.00%
system.ruby.L2Cache_Controller.SS.L1_GETS            3      0.00%      0.00%
system.ruby.L2Cache_Controller.SS.Unblock       628400      0.00%      0.00%
system.ruby.L2Cache_Controller.OO.Exclusive_Unblock       378869      0.00%      0.00%
system.ruby.L2Cache_Controller.OLSXS.Unblock         1913      0.00%      0.00%
system.ruby.L2Cache_Controller.SLSS.L1_GETS            2      0.00%      0.00%
system.ruby.L2Cache_Controller.SLSS.L1_PUTS_only            4      0.00%      0.00%
system.ruby.L2Cache_Controller.SLSS.Unblock       129927      0.00%      0.00%
system.ruby.L2Cache_Controller.MI.Writeback_Ack       829811      0.00%      0.00%
system.ruby.L2Cache_Controller.OLSI.Writeback_Ack           66      0.00%      0.00%
system.ruby.L2Cache_Controller.ILXD.DmaAck          161      0.00%      0.00%

---------- End Simulation Statistics   ----------
