
---------- Begin Simulation Statistics ----------
sim_seconds                                  3.561732                       # Number of seconds simulated
sim_ticks                                3561731635500                       # Number of ticks simulated
final_tick                               56467095982501                       # Number of ticks from beginning of simulation (restored from checkpoints and never reset)
sim_freq                                 1000000000000                       # Frequency of simulated ticks
host_inst_rate                                  97263                       # Simulator instruction rate (inst/s)
host_op_rate                                   163056                       # Simulator op (including micro ops) rate (op/s)
host_tick_rate                              225687201                       # Simulator tick rate (ticks/s)
host_mem_usage                                1849652                       # Number of bytes of host memory used
host_seconds                                 15781.72                       # Real time elapsed on the host
sim_insts                                  1534977220                       # Number of instructions simulated
sim_ops                                    2573311544                       # Number of ops (including micro ops) simulated
system.voltage_domain.voltage                       1                       # Voltage in Volts
system.clk_domain.clock                          1000                       # Clock period in ticks
system.mem_ctrls.bytes_read::ruby.dir_cntrl0     10136000                       # Number of bytes read from this memory
system.mem_ctrls.bytes_read::total           10136000                       # Number of bytes read from this memory
system.mem_ctrls.bytes_written::ruby.dir_cntrl0      1277888                       # Number of bytes written to this memory
system.mem_ctrls.bytes_written::total         1277888                       # Number of bytes written to this memory
system.mem_ctrls.num_reads::ruby.dir_cntrl0       158375                       # Number of read requests responded to by this memory
system.mem_ctrls.num_reads::total              158375                       # Number of read requests responded to by this memory
system.mem_ctrls.num_writes::ruby.dir_cntrl0        19967                       # Number of write requests responded to by this memory
system.mem_ctrls.num_writes::total              19967                       # Number of write requests responded to by this memory
system.mem_ctrls.bw_read::ruby.dir_cntrl0      2845807                       # Total read bandwidth from this memory (bytes/s)
system.mem_ctrls.bw_read::total               2845807                       # Total read bandwidth from this memory (bytes/s)
system.mem_ctrls.bw_write::ruby.dir_cntrl0       358783                       # Write bandwidth from this memory (bytes/s)
system.mem_ctrls.bw_write::total               358783                       # Write bandwidth from this memory (bytes/s)
system.mem_ctrls.bw_total::ruby.dir_cntrl0      3204590                       # Total bandwidth to/from this memory (bytes/s)
system.mem_ctrls.bw_total::total              3204590                       # Total bandwidth to/from this memory (bytes/s)
system.mem_ctrls.readReqs                      158375                       # Number of read requests accepted
system.mem_ctrls.writeReqs                      19967                       # Number of write requests accepted
system.mem_ctrls.readBursts                    158375                       # Number of DRAM read bursts, including those serviced by the write queue
system.mem_ctrls.writeBursts                    19967                       # Number of DRAM write bursts, including those merged in the write queue
system.mem_ctrls.bytesReadDRAM               10054720                       # Total number of bytes read from DRAM
system.mem_ctrls.bytesReadWrQ                   81280                       # Total number of bytes read from write queue
system.mem_ctrls.bytesWritten                 1268480                       # Total number of bytes written to DRAM
system.mem_ctrls.bytesReadSys                10136000                       # Total read bytes from the system interface side
system.mem_ctrls.bytesWrittenSys              1277888                       # Total written bytes from the system interface side
system.mem_ctrls.servicedByWrQ                   1270                       # Number of DRAM read bursts serviced by the write queue
system.mem_ctrls.mergedWrBursts                   149                       # Number of DRAM write bursts merged with an existing one
system.mem_ctrls.neitherReadNorWriteReqs            0                       # Number of requests that are neither read nor write
system.mem_ctrls.perBankRdBursts::0              9832                       # Per bank write bursts
system.mem_ctrls.perBankRdBursts::1             10046                       # Per bank write bursts
system.mem_ctrls.perBankRdBursts::2              9454                       # Per bank write bursts
system.mem_ctrls.perBankRdBursts::3              9272                       # Per bank write bursts
system.mem_ctrls.perBankRdBursts::4             10869                       # Per bank write bursts
system.mem_ctrls.perBankRdBursts::5             10316                       # Per bank write bursts
system.mem_ctrls.perBankRdBursts::6             10685                       # Per bank write bursts
system.mem_ctrls.perBankRdBursts::7             10627                       # Per bank write bursts
system.mem_ctrls.perBankRdBursts::8              9815                       # Per bank write bursts
system.mem_ctrls.perBankRdBursts::9             10693                       # Per bank write bursts
system.mem_ctrls.perBankRdBursts::10             9200                       # Per bank write bursts
system.mem_ctrls.perBankRdBursts::11             8662                       # Per bank write bursts
system.mem_ctrls.perBankRdBursts::12             8758                       # Per bank write bursts
system.mem_ctrls.perBankRdBursts::13             8858                       # Per bank write bursts
system.mem_ctrls.perBankRdBursts::14            10341                       # Per bank write bursts
system.mem_ctrls.perBankRdBursts::15             9677                       # Per bank write bursts
system.mem_ctrls.perBankWrBursts::0              1300                       # Per bank write bursts
system.mem_ctrls.perBankWrBursts::1              1599                       # Per bank write bursts
system.mem_ctrls.perBankWrBursts::2              1381                       # Per bank write bursts
system.mem_ctrls.perBankWrBursts::3              1067                       # Per bank write bursts
system.mem_ctrls.perBankWrBursts::4              1311                       # Per bank write bursts
system.mem_ctrls.perBankWrBursts::5              1368                       # Per bank write bursts
system.mem_ctrls.perBankWrBursts::6              1467                       # Per bank write bursts
system.mem_ctrls.perBankWrBursts::7              1384                       # Per bank write bursts
system.mem_ctrls.perBankWrBursts::8               962                       # Per bank write bursts
system.mem_ctrls.perBankWrBursts::9              1252                       # Per bank write bursts
system.mem_ctrls.perBankWrBursts::10              809                       # Per bank write bursts
system.mem_ctrls.perBankWrBursts::11              721                       # Per bank write bursts
system.mem_ctrls.perBankWrBursts::12             1052                       # Per bank write bursts
system.mem_ctrls.perBankWrBursts::13             1018                       # Per bank write bursts
system.mem_ctrls.perBankWrBursts::14             1683                       # Per bank write bursts
system.mem_ctrls.perBankWrBursts::15             1446                       # Per bank write bursts
system.mem_ctrls.numRdRetry                         0                       # Number of times read queue was full causing retry
system.mem_ctrls.numWrRetry                         0                       # Number of times write queue was full causing retry
system.mem_ctrls.totGap                  3561731517000                       # Total gap between requests
system.mem_ctrls.readPktSize::0                     0                       # Read request sizes (log2)
system.mem_ctrls.readPktSize::1                     0                       # Read request sizes (log2)
system.mem_ctrls.readPktSize::2                     0                       # Read request sizes (log2)
system.mem_ctrls.readPktSize::3                     0                       # Read request sizes (log2)
system.mem_ctrls.readPktSize::4                     0                       # Read request sizes (log2)
system.mem_ctrls.readPktSize::5                     0                       # Read request sizes (log2)
system.mem_ctrls.readPktSize::6                158375                       # Read request sizes (log2)
system.mem_ctrls.writePktSize::0                    0                       # Write request sizes (log2)
system.mem_ctrls.writePktSize::1                    0                       # Write request sizes (log2)
system.mem_ctrls.writePktSize::2                    0                       # Write request sizes (log2)
system.mem_ctrls.writePktSize::3                    0                       # Write request sizes (log2)
system.mem_ctrls.writePktSize::4                    0                       # Write request sizes (log2)
system.mem_ctrls.writePktSize::5                    0                       # Write request sizes (log2)
system.mem_ctrls.writePktSize::6                19967                       # Write request sizes (log2)
system.mem_ctrls.rdQLenPdf::0                  155682                       # What read queue length does an incoming req see
system.mem_ctrls.rdQLenPdf::1                    1414                       # What read queue length does an incoming req see
system.mem_ctrls.rdQLenPdf::2                       9                       # What read queue length does an incoming req see
system.mem_ctrls.rdQLenPdf::3                       0                       # What read queue length does an incoming req see
system.mem_ctrls.rdQLenPdf::4                       0                       # What read queue length does an incoming req see
system.mem_ctrls.rdQLenPdf::5                       0                       # What read queue length does an incoming req see
system.mem_ctrls.rdQLenPdf::6                       0                       # What read queue length does an incoming req see
system.mem_ctrls.rdQLenPdf::7                       0                       # What read queue length does an incoming req see
system.mem_ctrls.rdQLenPdf::8                       0                       # What read queue length does an incoming req see
system.mem_ctrls.rdQLenPdf::9                       0                       # What read queue length does an incoming req see
system.mem_ctrls.rdQLenPdf::10                      0                       # What read queue length does an incoming req see
system.mem_ctrls.rdQLenPdf::11                      0                       # What read queue length does an incoming req see
system.mem_ctrls.rdQLenPdf::12                      0                       # What read queue length does an incoming req see
system.mem_ctrls.rdQLenPdf::13                      0                       # What read queue length does an incoming req see
system.mem_ctrls.rdQLenPdf::14                      0                       # What read queue length does an incoming req see
system.mem_ctrls.rdQLenPdf::15                      0                       # What read queue length does an incoming req see
system.mem_ctrls.rdQLenPdf::16                      0                       # What read queue length does an incoming req see
system.mem_ctrls.rdQLenPdf::17                      0                       # What read queue length does an incoming req see
system.mem_ctrls.rdQLenPdf::18                      0                       # What read queue length does an incoming req see
system.mem_ctrls.rdQLenPdf::19                      0                       # What read queue length does an incoming req see
system.mem_ctrls.rdQLenPdf::20                      0                       # What read queue length does an incoming req see
system.mem_ctrls.rdQLenPdf::21                      0                       # What read queue length does an incoming req see
system.mem_ctrls.rdQLenPdf::22                      0                       # What read queue length does an incoming req see
system.mem_ctrls.rdQLenPdf::23                      0                       # What read queue length does an incoming req see
system.mem_ctrls.rdQLenPdf::24                      0                       # What read queue length does an incoming req see
system.mem_ctrls.rdQLenPdf::25                      0                       # What read queue length does an incoming req see
system.mem_ctrls.rdQLenPdf::26                      0                       # What read queue length does an incoming req see
system.mem_ctrls.rdQLenPdf::27                      0                       # What read queue length does an incoming req see
system.mem_ctrls.rdQLenPdf::28                      0                       # What read queue length does an incoming req see
system.mem_ctrls.rdQLenPdf::29                      0                       # What read queue length does an incoming req see
system.mem_ctrls.rdQLenPdf::30                      0                       # What read queue length does an incoming req see
system.mem_ctrls.rdQLenPdf::31                      0                       # What read queue length does an incoming req see
system.mem_ctrls.wrQLenPdf::0                       0                       # What write queue length does an incoming req see
system.mem_ctrls.wrQLenPdf::1                       0                       # What write queue length does an incoming req see
system.mem_ctrls.wrQLenPdf::2                       0                       # What write queue length does an incoming req see
system.mem_ctrls.wrQLenPdf::3                       0                       # What write queue length does an incoming req see
system.mem_ctrls.wrQLenPdf::4                       0                       # What write queue length does an incoming req see
system.mem_ctrls.wrQLenPdf::5                       0                       # What write queue length does an incoming req see
system.mem_ctrls.wrQLenPdf::6                       0                       # What write queue length does an incoming req see
system.mem_ctrls.wrQLenPdf::7                       0                       # What write queue length does an incoming req see
system.mem_ctrls.wrQLenPdf::8                       0                       # What write queue length does an incoming req see
system.mem_ctrls.wrQLenPdf::9                       0                       # What write queue length does an incoming req see
system.mem_ctrls.wrQLenPdf::10                      0                       # What write queue length does an incoming req see
system.mem_ctrls.wrQLenPdf::11                      0                       # What write queue length does an incoming req see
system.mem_ctrls.wrQLenPdf::12                      0                       # What write queue length does an incoming req see
system.mem_ctrls.wrQLenPdf::13                      0                       # What write queue length does an incoming req see
system.mem_ctrls.wrQLenPdf::14                      0                       # What write queue length does an incoming req see
system.mem_ctrls.wrQLenPdf::15                    190                       # What write queue length does an incoming req see
system.mem_ctrls.wrQLenPdf::16                    244                       # What write queue length does an incoming req see
system.mem_ctrls.wrQLenPdf::17                   1187                       # What write queue length does an incoming req see
system.mem_ctrls.wrQLenPdf::18                   1237                       # What write queue length does an incoming req see
system.mem_ctrls.wrQLenPdf::19                   1213                       # What write queue length does an incoming req see
system.mem_ctrls.wrQLenPdf::20                   1263                       # What write queue length does an incoming req see
system.mem_ctrls.wrQLenPdf::21                   1253                       # What write queue length does an incoming req see
system.mem_ctrls.wrQLenPdf::22                   1198                       # What write queue length does an incoming req see
system.mem_ctrls.wrQLenPdf::23                   1251                       # What write queue length does an incoming req see
system.mem_ctrls.wrQLenPdf::24                   1232                       # What write queue length does an incoming req see
system.mem_ctrls.wrQLenPdf::25                   1198                       # What write queue length does an incoming req see
system.mem_ctrls.wrQLenPdf::26                   1210                       # What write queue length does an incoming req see
system.mem_ctrls.wrQLenPdf::27                   1204                       # What write queue length does an incoming req see
system.mem_ctrls.wrQLenPdf::28                   1195                       # What write queue length does an incoming req see
system.mem_ctrls.wrQLenPdf::29                   1176                       # What write queue length does an incoming req see
system.mem_ctrls.wrQLenPdf::30                   1178                       # What write queue length does an incoming req see
system.mem_ctrls.wrQLenPdf::31                   1178                       # What write queue length does an incoming req see
system.mem_ctrls.wrQLenPdf::32                   1170                       # What write queue length does an incoming req see
system.mem_ctrls.wrQLenPdf::33                      5                       # What write queue length does an incoming req see
system.mem_ctrls.wrQLenPdf::34                      5                       # What write queue length does an incoming req see
system.mem_ctrls.wrQLenPdf::35                      4                       # What write queue length does an incoming req see
system.mem_ctrls.wrQLenPdf::36                      5                       # What write queue length does an incoming req see
system.mem_ctrls.wrQLenPdf::37                      3                       # What write queue length does an incoming req see
system.mem_ctrls.wrQLenPdf::38                      4                       # What write queue length does an incoming req see
system.mem_ctrls.wrQLenPdf::39                      4                       # What write queue length does an incoming req see
system.mem_ctrls.wrQLenPdf::40                      3                       # What write queue length does an incoming req see
system.mem_ctrls.wrQLenPdf::41                      3                       # What write queue length does an incoming req see
system.mem_ctrls.wrQLenPdf::42                      2                       # What write queue length does an incoming req see
system.mem_ctrls.wrQLenPdf::43                      2                       # What write queue length does an incoming req see
system.mem_ctrls.wrQLenPdf::44                      1                       # What write queue length does an incoming req see
system.mem_ctrls.wrQLenPdf::45                      0                       # What write queue length does an incoming req see
system.mem_ctrls.wrQLenPdf::46                      0                       # What write queue length does an incoming req see
system.mem_ctrls.wrQLenPdf::47                      0                       # What write queue length does an incoming req see
system.mem_ctrls.wrQLenPdf::48                      0                       # What write queue length does an incoming req see
system.mem_ctrls.wrQLenPdf::49                      0                       # What write queue length does an incoming req see
system.mem_ctrls.wrQLenPdf::50                      0                       # What write queue length does an incoming req see
system.mem_ctrls.wrQLenPdf::51                      0                       # What write queue length does an incoming req see
system.mem_ctrls.wrQLenPdf::52                      0                       # What write queue length does an incoming req see
system.mem_ctrls.wrQLenPdf::53                      0                       # What write queue length does an incoming req see
system.mem_ctrls.wrQLenPdf::54                      0                       # What write queue length does an incoming req see
system.mem_ctrls.wrQLenPdf::55                      0                       # What write queue length does an incoming req see
system.mem_ctrls.wrQLenPdf::56                      0                       # What write queue length does an incoming req see
system.mem_ctrls.wrQLenPdf::57                      0                       # What write queue length does an incoming req see
system.mem_ctrls.wrQLenPdf::58                      0                       # What write queue length does an incoming req see
system.mem_ctrls.wrQLenPdf::59                      0                       # What write queue length does an incoming req see
system.mem_ctrls.wrQLenPdf::60                      0                       # What write queue length does an incoming req see
system.mem_ctrls.wrQLenPdf::61                      0                       # What write queue length does an incoming req see
system.mem_ctrls.wrQLenPdf::62                      0                       # What write queue length does an incoming req see
system.mem_ctrls.wrQLenPdf::63                      0                       # What write queue length does an incoming req see
system.mem_ctrls.bytesPerActivate::samples        45441                       # Bytes accessed per row activation
system.mem_ctrls.bytesPerActivate::mean    249.188882                       # Bytes accessed per row activation
system.mem_ctrls.bytesPerActivate::gmean   135.667439                       # Bytes accessed per row activation
system.mem_ctrls.bytesPerActivate::stdev   325.302177                       # Bytes accessed per row activation
system.mem_ctrls.bytesPerActivate::0-127        24309     53.50%     53.50% # Bytes accessed per row activation
system.mem_ctrls.bytesPerActivate::128-255         9833     21.64%     75.13% # Bytes accessed per row activation
system.mem_ctrls.bytesPerActivate::256-383         2531      5.57%     80.70% # Bytes accessed per row activation
system.mem_ctrls.bytesPerActivate::384-511         1269      2.79%     83.50% # Bytes accessed per row activation
system.mem_ctrls.bytesPerActivate::512-639          676      1.49%     84.98% # Bytes accessed per row activation
system.mem_ctrls.bytesPerActivate::640-767          425      0.94%     85.92% # Bytes accessed per row activation
system.mem_ctrls.bytesPerActivate::768-895          366      0.81%     86.73% # Bytes accessed per row activation
system.mem_ctrls.bytesPerActivate::896-1023          283      0.62%     87.35% # Bytes accessed per row activation
system.mem_ctrls.bytesPerActivate::1024-1151         5749     12.65%    100.00% # Bytes accessed per row activation
system.mem_ctrls.bytesPerActivate::total        45441                       # Bytes accessed per row activation
system.mem_ctrls.rdPerTurnAround::samples         1168                       # Reads before turning the bus around for writes
system.mem_ctrls.rdPerTurnAround::mean     134.860445                       # Reads before turning the bus around for writes
system.mem_ctrls.rdPerTurnAround::stdev   1199.089153                       # Reads before turning the bus around for writes
system.mem_ctrls.rdPerTurnAround::0-1023         1162     99.49%     99.49% # Reads before turning the bus around for writes
system.mem_ctrls.rdPerTurnAround::1024-2047            2      0.17%     99.66% # Reads before turning the bus around for writes
system.mem_ctrls.rdPerTurnAround::4096-5119            1      0.09%     99.74% # Reads before turning the bus around for writes
system.mem_ctrls.rdPerTurnAround::16384-17407            1      0.09%     99.83% # Reads before turning the bus around for writes
system.mem_ctrls.rdPerTurnAround::18432-19455            1      0.09%     99.91% # Reads before turning the bus around for writes
system.mem_ctrls.rdPerTurnAround::31744-32767            1      0.09%    100.00% # Reads before turning the bus around for writes
system.mem_ctrls.rdPerTurnAround::total          1168                       # Reads before turning the bus around for writes
system.mem_ctrls.wrPerTurnAround::samples         1168                       # Writes before turning the bus around for reads
system.mem_ctrls.wrPerTurnAround::mean      16.969178                       # Writes before turning the bus around for reads
system.mem_ctrls.wrPerTurnAround::gmean     16.814736                       # Writes before turning the bus around for reads
system.mem_ctrls.wrPerTurnAround::stdev      2.609535                       # Writes before turning the bus around for reads
system.mem_ctrls.wrPerTurnAround::16              962     82.36%     82.36% # Writes before turning the bus around for reads
system.mem_ctrls.wrPerTurnAround::17                7      0.60%     82.96% # Writes before turning the bus around for reads
system.mem_ctrls.wrPerTurnAround::18               73      6.25%     89.21% # Writes before turning the bus around for reads
system.mem_ctrls.wrPerTurnAround::20                1      0.09%     89.30% # Writes before turning the bus around for reads
system.mem_ctrls.wrPerTurnAround::21               34      2.91%     92.21% # Writes before turning the bus around for reads
system.mem_ctrls.wrPerTurnAround::22               14      1.20%     93.41% # Writes before turning the bus around for reads
system.mem_ctrls.wrPerTurnAround::23                8      0.68%     94.09% # Writes before turning the bus around for reads
system.mem_ctrls.wrPerTurnAround::24               41      3.51%     97.60% # Writes before turning the bus around for reads
system.mem_ctrls.wrPerTurnAround::25                8      0.68%     98.29% # Writes before turning the bus around for reads
system.mem_ctrls.wrPerTurnAround::26                1      0.09%     98.37% # Writes before turning the bus around for reads
system.mem_ctrls.wrPerTurnAround::28               15      1.28%     99.66% # Writes before turning the bus around for reads
system.mem_ctrls.wrPerTurnAround::31                1      0.09%     99.74% # Writes before turning the bus around for reads
system.mem_ctrls.wrPerTurnAround::32                1      0.09%     99.83% # Writes before turning the bus around for reads
system.mem_ctrls.wrPerTurnAround::37                1      0.09%     99.91% # Writes before turning the bus around for reads
system.mem_ctrls.wrPerTurnAround::39                1      0.09%    100.00% # Writes before turning the bus around for reads
system.mem_ctrls.wrPerTurnAround::total          1168                       # Writes before turning the bus around for reads
system.mem_ctrls.totQLat                   1058109745                       # Total ticks spent queuing
system.mem_ctrls.totMemAccLat              4003828495                       # Total ticks spent from burst creation until serviced by the DRAM
system.mem_ctrls.totBusLat                  785525000                       # Total ticks spent in databus transfers
system.mem_ctrls.avgQLat                      6735.05                       # Average queueing delay per DRAM burst
system.mem_ctrls.avgBusLat                    5000.00                       # Average bus latency per DRAM burst
system.mem_ctrls.avgMemAccLat                25485.05                       # Average memory access latency per DRAM burst
system.mem_ctrls.avgRdBW                         2.82                       # Average DRAM read bandwidth in MiByte/s
system.mem_ctrls.avgWrBW                         0.36                       # Average achieved write bandwidth in MiByte/s
system.mem_ctrls.avgRdBWSys                      2.85                       # Average system read bandwidth in MiByte/s
system.mem_ctrls.avgWrBWSys                      0.36                       # Average system write bandwidth in MiByte/s
system.mem_ctrls.peakBW                      12800.00                       # Theoretical peak bandwidth in MiByte/s
system.mem_ctrls.busUtil                         0.02                       # Data bus utilization in percentage
system.mem_ctrls.busUtilRead                     0.02                       # Data bus utilization in percentage for reads
system.mem_ctrls.busUtilWrite                    0.00                       # Data bus utilization in percentage for writes
system.mem_ctrls.avgRdQLen                       1.00                       # Average read queue length when enqueuing
system.mem_ctrls.avgWrQLen                      25.15                       # Average write queue length when enqueuing
system.mem_ctrls.readRowHits                   122333                       # Number of row buffer hits during reads
system.mem_ctrls.writeRowHits                    9151                       # Number of row buffer hits during writes
system.mem_ctrls.readRowHitRate                 77.87                       # Row buffer hit rate for reads
system.mem_ctrls.writeRowHitRate                46.18                       # Row buffer hit rate for writes
system.mem_ctrls.avgGap                   19971355.69                       # Average gap between requests
system.mem_ctrls.pageHitRate                    74.32                       # Row buffer hit rate, read and write combined
system.mem_ctrls_0.actEnergy                195826680                       # Energy for activate commands per rank (pJ)
system.mem_ctrls_0.preEnergy                106849875                       # Energy for precharge commands per rank (pJ)
system.mem_ctrls_0.readEnergy               701056200                       # Energy for read commands per rank (pJ)
system.mem_ctrls_0.writeEnergy               70619040                       # Energy for write commands per rank (pJ)
system.mem_ctrls_0.refreshEnergy         232920480000                       # Energy for refresh commands per rank (pJ)
system.mem_ctrls_0.actBackEnergy         105138805365                       # Energy for active background per rank (pJ)
system.mem_ctrls_0.preBackEnergy         2047434633750                       # Energy for precharge background per rank (pJ)
system.mem_ctrls_0.totalEnergy           2386568270910                       # Total energy per rank (pJ)
system.mem_ctrls_0.averagePower            669.237100                       # Core power per rank (mW)
system.mem_ctrls_0.memoryStateTime::IDLE 3403962511500                       # Time in different power states
system.mem_ctrls_0.memoryStateTime::REF  118934140000                       # Time in different power states
system.mem_ctrls_0.memoryStateTime::PRE_PDN            0                       # Time in different power states
system.mem_ctrls_0.memoryStateTime::ACT   38835311500                       # Time in different power states
system.mem_ctrls_0.memoryStateTime::ACT_PDN            0                       # Time in different power states
system.mem_ctrls_1.actEnergy                179187120                       # Energy for activate commands per rank (pJ)
system.mem_ctrls_1.preEnergy                 97770750                       # Energy for precharge commands per rank (pJ)
system.mem_ctrls_1.readEnergy               656385600                       # Energy for read commands per rank (pJ)
system.mem_ctrls_1.writeEnergy               58021920                       # Energy for write commands per rank (pJ)
system.mem_ctrls_1.refreshEnergy         232920480000                       # Energy for refresh commands per rank (pJ)
system.mem_ctrls_1.actBackEnergy         103821698385                       # Energy for active background per rank (pJ)
system.mem_ctrls_1.preBackEnergy         2048589990750                       # Energy for precharge background per rank (pJ)
system.mem_ctrls_1.totalEnergy           2386323534525                       # Total energy per rank (pJ)
system.mem_ctrls_1.averagePower            669.168472                       # Core power per rank (mW)
system.mem_ctrls_1.memoryStateTime::IDLE 3406165992250                       # Time in different power states
system.mem_ctrls_1.memoryStateTime::REF  118934140000                       # Time in different power states
system.mem_ctrls_1.memoryStateTime::PRE_PDN            0                       # Time in different power states
system.mem_ctrls_1.memoryStateTime::ACT   36634281500                       # Time in different power states
system.mem_ctrls_1.memoryStateTime::ACT_PDN            0                       # Time in different power states
system.cpu_voltage_domain.voltage                   1                       # Voltage in Volts
system.cpu_clk_domain.clock                       500                       # Clock period in ticks
system.cpu0.apic_clk_domain.clock                8000                       # Clock period in ticks
system.cpu0.numCycles                      7123463255                       # number of cpu cycles simulated
system.cpu0.numWorkItemsStarted                     0                       # number of work items this cpu started
system.cpu0.numWorkItemsCompleted                   0                       # number of work items this cpu completed
system.cpu0.kern.inst.arm                           0                       # number of arm instructions executed
system.cpu0.kern.inst.quiesce                       0                       # number of quiesce instructions executed
system.cpu0.committedInsts                 1476560692                       # Number of instructions committed
system.cpu0.committedOps                   2467513962                       # Number of ops (including micro ops) committed
system.cpu0.num_int_alu_accesses           1882385933                       # Number of integer alu accesses
system.cpu0.num_fp_alu_accesses             945947406                       # Number of float alu accesses
system.cpu0.num_func_calls                   34382697                       # number of times a function call or return occured
system.cpu0.num_conditional_control_insts    165790755                       # number of instructions that are conditional controls
system.cpu0.num_int_insts                  1882385933                       # number of integer instructions
system.cpu0.num_fp_insts                    945947406                       # number of float instructions
system.cpu0.num_int_register_reads         3991709777                       # number of times the integer registers were read
system.cpu0.num_int_register_writes        1279973231                       # number of times the integer registers were written
system.cpu0.num_fp_register_reads          1502755341                       # number of times the floating registers were read
system.cpu0.num_fp_register_writes          775539812                       # number of times the floating registers were written
system.cpu0.num_cc_register_reads          1394089544                       # number of times the CC registers were read
system.cpu0.num_cc_register_writes          529177395                       # number of times the CC registers were written
system.cpu0.num_mem_refs                    626228381                       # number of memory refs
system.cpu0.num_load_insts                  465745555                       # Number of load instructions
system.cpu0.num_store_insts                 160482826                       # Number of store instructions
system.cpu0.num_idle_cycles              194375018.565360                       # Number of idle cycles
system.cpu0.num_busy_cycles              6929088236.434640                       # Number of busy cycles
system.cpu0.not_idle_fraction                0.972713                       # Percentage of non-idle cycles
system.cpu0.idle_fraction                    0.027287                       # Percentage of idle cycles
system.cpu0.Branches                        223644899                       # Number of branches fetched
system.cpu0.op_class::No_OpClass              3271290      0.13%      0.13% # Class of executed instruction
system.cpu0.op_class::IntAlu               1423524961     57.69%     57.82% # Class of executed instruction
system.cpu0.op_class::IntMult                 4501742      0.18%     58.01% # Class of executed instruction
system.cpu0.op_class::IntDiv                 18800674      0.76%     58.77% # Class of executed instruction
system.cpu0.op_class::FloatAdd              390176769     15.81%     74.58% # Class of executed instruction
system.cpu0.op_class::FloatCmp                      0      0.00%     74.58% # Class of executed instruction
system.cpu0.op_class::FloatCvt                      0      0.00%     74.58% # Class of executed instruction
system.cpu0.op_class::FloatMult                     0      0.00%     74.58% # Class of executed instruction
system.cpu0.op_class::FloatDiv                1010280      0.04%     74.62% # Class of executed instruction
system.cpu0.op_class::FloatSqrt                     0      0.00%     74.62% # Class of executed instruction
system.cpu0.op_class::SimdAdd                       0      0.00%     74.62% # Class of executed instruction
system.cpu0.op_class::SimdAddAcc                    0      0.00%     74.62% # Class of executed instruction
system.cpu0.op_class::SimdAlu                       0      0.00%     74.62% # Class of executed instruction
system.cpu0.op_class::SimdCmp                       0      0.00%     74.62% # Class of executed instruction
system.cpu0.op_class::SimdCvt                       0      0.00%     74.62% # Class of executed instruction
system.cpu0.op_class::SimdMisc                      0      0.00%     74.62% # Class of executed instruction
system.cpu0.op_class::SimdMult                      0      0.00%     74.62% # Class of executed instruction
system.cpu0.op_class::SimdMultAcc                   0      0.00%     74.62% # Class of executed instruction
system.cpu0.op_class::SimdShift                     0      0.00%     74.62% # Class of executed instruction
system.cpu0.op_class::SimdShiftAcc                  0      0.00%     74.62% # Class of executed instruction
system.cpu0.op_class::SimdSqrt                      0      0.00%     74.62% # Class of executed instruction
system.cpu0.op_class::SimdFloatAdd                  0      0.00%     74.62% # Class of executed instruction
system.cpu0.op_class::SimdFloatAlu                  0      0.00%     74.62% # Class of executed instruction
system.cpu0.op_class::SimdFloatCmp                  0      0.00%     74.62% # Class of executed instruction
system.cpu0.op_class::SimdFloatCvt                  0      0.00%     74.62% # Class of executed instruction
system.cpu0.op_class::SimdFloatDiv                  0      0.00%     74.62% # Class of executed instruction
system.cpu0.op_class::SimdFloatMisc                 0      0.00%     74.62% # Class of executed instruction
system.cpu0.op_class::SimdFloatMult                 0      0.00%     74.62% # Class of executed instruction
system.cpu0.op_class::SimdFloatMultAcc              0      0.00%     74.62% # Class of executed instruction
system.cpu0.op_class::SimdFloatSqrt                 0      0.00%     74.62% # Class of executed instruction
system.cpu0.op_class::MemRead               465745555     18.88%     93.50% # Class of executed instruction
system.cpu0.op_class::MemWrite              160482826      6.50%    100.00% # Class of executed instruction
system.cpu0.op_class::IprAccess                     0      0.00%    100.00% # Class of executed instruction
system.cpu0.op_class::InstPrefetch                  0      0.00%    100.00% # Class of executed instruction
system.cpu0.op_class::total                2467514097                       # Class of executed instruction
system.cpu1.apic_clk_domain.clock                8000                       # Clock period in ticks
system.cpu1.numCycles                      7120918036                       # number of cpu cycles simulated
system.cpu1.numWorkItemsStarted                     0                       # number of work items this cpu started
system.cpu1.numWorkItemsCompleted                   0                       # number of work items this cpu completed
system.cpu1.kern.inst.arm                           0                       # number of arm instructions executed
system.cpu1.kern.inst.quiesce                       0                       # number of quiesce instructions executed
system.cpu1.committedInsts                    4555381                       # Number of instructions committed
system.cpu1.committedOps                      9437185                       # Number of ops (including micro ops) committed
system.cpu1.num_int_alu_accesses              9261052                       # Number of integer alu accesses
system.cpu1.num_fp_alu_accesses                     0                       # Number of float alu accesses
system.cpu1.num_func_calls                     233480                       # number of times a function call or return occured
system.cpu1.num_conditional_control_insts       775017                       # number of instructions that are conditional controls
system.cpu1.num_int_insts                     9261052                       # number of integer instructions
system.cpu1.num_fp_insts                            0                       # number of float instructions
system.cpu1.num_int_register_reads           18307020                       # number of times the integer registers were read
system.cpu1.num_int_register_writes           7636543                       # number of times the integer registers were written
system.cpu1.num_fp_register_reads                   0                       # number of times the floating registers were read
system.cpu1.num_fp_register_writes                  0                       # number of times the floating registers were written
system.cpu1.num_cc_register_reads             5846045                       # number of times the CC registers were read
system.cpu1.num_cc_register_writes            3079803                       # number of times the CC registers were written
system.cpu1.num_mem_refs                      2002863                       # number of memory refs
system.cpu1.num_load_insts                    1279474                       # Number of load instructions
system.cpu1.num_store_insts                    723389                       # Number of store instructions
system.cpu1.num_idle_cycles              7098094484.868767                       # Number of idle cycles
system.cpu1.num_busy_cycles              22823551.131233                       # Number of busy cycles
system.cpu1.not_idle_fraction                0.003205                       # Percentage of non-idle cycles
system.cpu1.idle_fraction                    0.996795                       # Percentage of idle cycles
system.cpu1.Branches                          1082948                       # Number of branches fetched
system.cpu1.op_class::No_OpClass               121867      1.29%      1.29% # Class of executed instruction
system.cpu1.op_class::IntAlu                  7259102     76.92%     78.21% # Class of executed instruction
system.cpu1.op_class::IntMult                   17894      0.19%     78.40% # Class of executed instruction
system.cpu1.op_class::IntDiv                    35462      0.38%     78.78% # Class of executed instruction
system.cpu1.op_class::FloatAdd                      0      0.00%     78.78% # Class of executed instruction
system.cpu1.op_class::FloatCmp                      0      0.00%     78.78% # Class of executed instruction
system.cpu1.op_class::FloatCvt                      0      0.00%     78.78% # Class of executed instruction
system.cpu1.op_class::FloatMult                     0      0.00%     78.78% # Class of executed instruction
system.cpu1.op_class::FloatDiv                      0      0.00%     78.78% # Class of executed instruction
system.cpu1.op_class::FloatSqrt                     0      0.00%     78.78% # Class of executed instruction
system.cpu1.op_class::SimdAdd                       0      0.00%     78.78% # Class of executed instruction
system.cpu1.op_class::SimdAddAcc                    0      0.00%     78.78% # Class of executed instruction
system.cpu1.op_class::SimdAlu                       0      0.00%     78.78% # Class of executed instruction
system.cpu1.op_class::SimdCmp                       0      0.00%     78.78% # Class of executed instruction
system.cpu1.op_class::SimdCvt                       0      0.00%     78.78% # Class of executed instruction
system.cpu1.op_class::SimdMisc                      0      0.00%     78.78% # Class of executed instruction
system.cpu1.op_class::SimdMult                      0      0.00%     78.78% # Class of executed instruction
system.cpu1.op_class::SimdMultAcc                   0      0.00%     78.78% # Class of executed instruction
system.cpu1.op_class::SimdShift                     0      0.00%     78.78% # Class of executed instruction
system.cpu1.op_class::SimdShiftAcc                  0      0.00%     78.78% # Class of executed instruction
system.cpu1.op_class::SimdSqrt                      0      0.00%     78.78% # Class of executed instruction
system.cpu1.op_class::SimdFloatAdd                  0      0.00%     78.78% # Class of executed instruction
system.cpu1.op_class::SimdFloatAlu                  0      0.00%     78.78% # Class of executed instruction
system.cpu1.op_class::SimdFloatCmp                  0      0.00%     78.78% # Class of executed instruction
system.cpu1.op_class::SimdFloatCvt                  0      0.00%     78.78% # Class of executed instruction
system.cpu1.op_class::SimdFloatDiv                  0      0.00%     78.78% # Class of executed instruction
system.cpu1.op_class::SimdFloatMisc                 0      0.00%     78.78% # Class of executed instruction
system.cpu1.op_class::SimdFloatMult                 0      0.00%     78.78% # Class of executed instruction
system.cpu1.op_class::SimdFloatMultAcc              0      0.00%     78.78% # Class of executed instruction
system.cpu1.op_class::SimdFloatSqrt                 0      0.00%     78.78% # Class of executed instruction
system.cpu1.op_class::MemRead                 1279474     13.56%     92.33% # Class of executed instruction
system.cpu1.op_class::MemWrite                 723389      7.67%    100.00% # Class of executed instruction
system.cpu1.op_class::IprAccess                     0      0.00%    100.00% # Class of executed instruction
system.cpu1.op_class::InstPrefetch                  0      0.00%    100.00% # Class of executed instruction
system.cpu1.op_class::total                   9437188                       # Class of executed instruction
system.cpu2.apic_clk_domain.clock                8000                       # Clock period in ticks
system.cpu2.numCycles                      7123483901                       # number of cpu cycles simulated
system.cpu2.numWorkItemsStarted                     0                       # number of work items this cpu started
system.cpu2.numWorkItemsCompleted                   0                       # number of work items this cpu completed
system.cpu2.kern.inst.arm                           0                       # number of arm instructions executed
system.cpu2.kern.inst.quiesce                       0                       # number of quiesce instructions executed
system.cpu2.committedInsts                   49131277                       # Number of instructions committed
system.cpu2.committedOps                     86734560                       # Number of ops (including micro ops) committed
system.cpu2.num_int_alu_accesses             76195125                       # Number of integer alu accesses
system.cpu2.num_fp_alu_accesses              19656007                       # Number of float alu accesses
system.cpu2.num_func_calls                    1317294                       # number of times a function call or return occured
system.cpu2.num_conditional_control_insts      6544110                       # number of instructions that are conditional controls
system.cpu2.num_int_insts                    76195125                       # number of integer instructions
system.cpu2.num_fp_insts                     19656007                       # number of float instructions
system.cpu2.num_int_register_reads          156146623                       # number of times the integer registers were read
system.cpu2.num_int_register_writes          56952923                       # number of times the integer registers were written
system.cpu2.num_fp_register_reads            27213054                       # number of times the floating registers were read
system.cpu2.num_fp_register_writes           14482919                       # number of times the floating registers were written
system.cpu2.num_cc_register_reads            58638108                       # number of times the CC registers were read
system.cpu2.num_cc_register_writes           23890008                       # number of times the CC registers were written
system.cpu2.num_mem_refs                     20598794                       # number of memory refs
system.cpu2.num_load_insts                   13897683                       # Number of load instructions
system.cpu2.num_store_insts                   6701111                       # Number of store instructions
system.cpu2.num_idle_cycles              6914555160.972971                       # Number of idle cycles
system.cpu2.num_busy_cycles              208928740.027029                       # Number of busy cycles
system.cpu2.not_idle_fraction                0.029330                       # Percentage of non-idle cycles
system.cpu2.idle_fraction                    0.970670                       # Percentage of idle cycles
system.cpu2.Branches                          8844616                       # Number of branches fetched
system.cpu2.op_class::No_OpClass               231254      0.27%      0.27% # Class of executed instruction
system.cpu2.op_class::IntAlu                 56835043     65.53%     65.79% # Class of executed instruction
system.cpu2.op_class::IntMult                  245828      0.28%     66.08% # Class of executed instruction
system.cpu2.op_class::IntDiv                   848370      0.98%     67.06% # Class of executed instruction
system.cpu2.op_class::FloatAdd                7917526      9.13%     76.18% # Class of executed instruction
system.cpu2.op_class::FloatCmp                      0      0.00%     76.18% # Class of executed instruction
system.cpu2.op_class::FloatCvt                      0      0.00%     76.18% # Class of executed instruction
system.cpu2.op_class::FloatMult                     0      0.00%     76.18% # Class of executed instruction
system.cpu2.op_class::FloatDiv                  57876      0.07%     76.25% # Class of executed instruction
system.cpu2.op_class::FloatSqrt                     0      0.00%     76.25% # Class of executed instruction
system.cpu2.op_class::SimdAdd                       0      0.00%     76.25% # Class of executed instruction
system.cpu2.op_class::SimdAddAcc                    0      0.00%     76.25% # Class of executed instruction
system.cpu2.op_class::SimdAlu                       0      0.00%     76.25% # Class of executed instruction
system.cpu2.op_class::SimdCmp                       0      0.00%     76.25% # Class of executed instruction
system.cpu2.op_class::SimdCvt                       0      0.00%     76.25% # Class of executed instruction
system.cpu2.op_class::SimdMisc                      0      0.00%     76.25% # Class of executed instruction
system.cpu2.op_class::SimdMult                      0      0.00%     76.25% # Class of executed instruction
system.cpu2.op_class::SimdMultAcc                   0      0.00%     76.25% # Class of executed instruction
system.cpu2.op_class::SimdShift                     0      0.00%     76.25% # Class of executed instruction
system.cpu2.op_class::SimdShiftAcc                  0      0.00%     76.25% # Class of executed instruction
system.cpu2.op_class::SimdSqrt                      0      0.00%     76.25% # Class of executed instruction
system.cpu2.op_class::SimdFloatAdd                  0      0.00%     76.25% # Class of executed instruction
system.cpu2.op_class::SimdFloatAlu                  0      0.00%     76.25% # Class of executed instruction
system.cpu2.op_class::SimdFloatCmp                  0      0.00%     76.25% # Class of executed instruction
system.cpu2.op_class::SimdFloatCvt                  0      0.00%     76.25% # Class of executed instruction
system.cpu2.op_class::SimdFloatDiv                  0      0.00%     76.25% # Class of executed instruction
system.cpu2.op_class::SimdFloatMisc                 0      0.00%     76.25% # Class of executed instruction
system.cpu2.op_class::SimdFloatMult                 0      0.00%     76.25% # Class of executed instruction
system.cpu2.op_class::SimdFloatMultAcc              0      0.00%     76.25% # Class of executed instruction
system.cpu2.op_class::SimdFloatSqrt                 0      0.00%     76.25% # Class of executed instruction
system.cpu2.op_class::MemRead                13897683     16.02%     92.27% # Class of executed instruction
system.cpu2.op_class::MemWrite                6701111      7.73%    100.00% # Class of executed instruction
system.cpu2.op_class::IprAccess                     0      0.00%    100.00% # Class of executed instruction
system.cpu2.op_class::InstPrefetch                  0      0.00%    100.00% # Class of executed instruction
system.cpu2.op_class::total                  86734691                       # Class of executed instruction
system.cpu3.apic_clk_domain.clock                8000                       # Clock period in ticks
system.cpu3.numCycles                      7124608463                       # number of cpu cycles simulated
system.cpu3.numWorkItemsStarted                     0                       # number of work items this cpu started
system.cpu3.numWorkItemsCompleted                   0                       # number of work items this cpu completed
system.cpu3.kern.inst.arm                           0                       # number of arm instructions executed
system.cpu3.kern.inst.quiesce                       0                       # number of quiesce instructions executed
system.cpu3.committedInsts                    3159270                       # Number of instructions committed
system.cpu3.committedOps                      6702738                       # Number of ops (including micro ops) committed
system.cpu3.num_int_alu_accesses              6568888                       # Number of integer alu accesses
system.cpu3.num_fp_alu_accesses                    50                       # Number of float alu accesses
system.cpu3.num_func_calls                     175119                       # number of times a function call or return occured
system.cpu3.num_conditional_control_insts       537516                       # number of instructions that are conditional controls
system.cpu3.num_int_insts                     6568888                       # number of integer instructions
system.cpu3.num_fp_insts                           50                       # number of float instructions
system.cpu3.num_int_register_reads           13058898                       # number of times the integer registers were read
system.cpu3.num_int_register_writes           5419457                       # number of times the integer registers were written
system.cpu3.num_fp_register_reads                  78                       # number of times the floating registers were read
system.cpu3.num_fp_register_writes                 38                       # number of times the floating registers were written
system.cpu3.num_cc_register_reads             4105688                       # number of times the CC registers were read
system.cpu3.num_cc_register_writes            2089991                       # number of times the CC registers were written
system.cpu3.num_mem_refs                      1487240                       # number of memory refs
system.cpu3.num_load_insts                     927110                       # Number of load instructions
system.cpu3.num_store_insts                    560130                       # Number of store instructions
system.cpu3.num_idle_cycles              7108434570.296365                       # Number of idle cycles
system.cpu3.num_busy_cycles              16173892.703635                       # Number of busy cycles
system.cpu3.not_idle_fraction                0.002270                       # Percentage of non-idle cycles
system.cpu3.idle_fraction                    0.997730                       # Percentage of idle cycles
system.cpu3.Branches                           767921                       # Number of branches fetched
system.cpu3.op_class::No_OpClass               109258      1.63%      1.63% # Class of executed instruction
system.cpu3.op_class::IntAlu                  5054579     75.41%     77.04% # Class of executed instruction
system.cpu3.op_class::IntMult                   12502      0.19%     77.23% # Class of executed instruction
system.cpu3.op_class::IntDiv                    39150      0.58%     77.81% # Class of executed instruction
system.cpu3.op_class::FloatAdd                     32      0.00%     77.81% # Class of executed instruction
system.cpu3.op_class::FloatCmp                      0      0.00%     77.81% # Class of executed instruction
system.cpu3.op_class::FloatCvt                      0      0.00%     77.81% # Class of executed instruction
system.cpu3.op_class::FloatMult                     0      0.00%     77.81% # Class of executed instruction
system.cpu3.op_class::FloatDiv                      0      0.00%     77.81% # Class of executed instruction
system.cpu3.op_class::FloatSqrt                     0      0.00%     77.81% # Class of executed instruction
system.cpu3.op_class::SimdAdd                       0      0.00%     77.81% # Class of executed instruction
system.cpu3.op_class::SimdAddAcc                    0      0.00%     77.81% # Class of executed instruction
system.cpu3.op_class::SimdAlu                       0      0.00%     77.81% # Class of executed instruction
system.cpu3.op_class::SimdCmp                       0      0.00%     77.81% # Class of executed instruction
system.cpu3.op_class::SimdCvt                       0      0.00%     77.81% # Class of executed instruction
system.cpu3.op_class::SimdMisc                      0      0.00%     77.81% # Class of executed instruction
system.cpu3.op_class::SimdMult                      0      0.00%     77.81% # Class of executed instruction
system.cpu3.op_class::SimdMultAcc                   0      0.00%     77.81% # Class of executed instruction
system.cpu3.op_class::SimdShift                     0      0.00%     77.81% # Class of executed instruction
system.cpu3.op_class::SimdShiftAcc                  0      0.00%     77.81% # Class of executed instruction
system.cpu3.op_class::SimdSqrt                      0      0.00%     77.81% # Class of executed instruction
system.cpu3.op_class::SimdFloatAdd                  0      0.00%     77.81% # Class of executed instruction
system.cpu3.op_class::SimdFloatAlu                  0      0.00%     77.81% # Class of executed instruction
system.cpu3.op_class::SimdFloatCmp                  0      0.00%     77.81% # Class of executed instruction
system.cpu3.op_class::SimdFloatCvt                  0      0.00%     77.81% # Class of executed instruction
system.cpu3.op_class::SimdFloatDiv                  0      0.00%     77.81% # Class of executed instruction
system.cpu3.op_class::SimdFloatMisc                 0      0.00%     77.81% # Class of executed instruction
system.cpu3.op_class::SimdFloatMult                 0      0.00%     77.81% # Class of executed instruction
system.cpu3.op_class::SimdFloatMultAcc              0      0.00%     77.81% # Class of executed instruction
system.cpu3.op_class::SimdFloatSqrt                 0      0.00%     77.81% # Class of executed instruction
system.cpu3.op_class::MemRead                  927110     13.83%     91.64% # Class of executed instruction
system.cpu3.op_class::MemWrite                 560130      8.36%    100.00% # Class of executed instruction
system.cpu3.op_class::IprAccess                     0      0.00%    100.00% # Class of executed instruction
system.cpu3.op_class::InstPrefetch                  0      0.00%    100.00% # Class of executed instruction
system.cpu3.op_class::total                   6702761                       # Class of executed instruction
system.iobus.trans_dist::ReadReq                  801                       # Transaction distribution
system.iobus.trans_dist::ReadResp                 801                       # Transaction distribution
system.iobus.trans_dist::WriteReq                5066                       # Transaction distribution
system.iobus.trans_dist::WriteResp               5066                       # Transaction distribution
system.iobus.trans_dist::MessageReq               104                       # Transaction distribution
system.iobus.trans_dist::MessageResp              104                       # Transaction distribution
system.iobus.pkt_count_system.pc.south_bridge.io_apic.int_master::system.ruby.l0_cntrl0.sequencer.pio-slave-port           48                       # Packet count per connected master and slave (bytes)
system.iobus.pkt_count_system.pc.south_bridge.io_apic.int_master::system.ruby.l0_cntrl1.sequencer.pio-slave-port           46                       # Packet count per connected master and slave (bytes)
system.iobus.pkt_count_system.pc.south_bridge.io_apic.int_master::system.ruby.l0_cntrl2.sequencer.pio-slave-port           46                       # Packet count per connected master and slave (bytes)
system.iobus.pkt_count_system.pc.south_bridge.io_apic.int_master::system.ruby.l0_cntrl3.sequencer.pio-slave-port           48                       # Packet count per connected master and slave (bytes)
system.iobus.pkt_count_system.pc.south_bridge.io_apic.int_master::total          188                       # Packet count per connected master and slave (bytes)
system.iobus.pkt_count_system.ruby.l0_cntrl0.sequencer.mem-master-port::system.pc.south_bridge.ide.pio          956                       # Packet count per connected master and slave (bytes)
system.iobus.pkt_count_system.ruby.l0_cntrl0.sequencer.mem-master-port::system.pc.south_bridge.io_apic.pio            8                       # Packet count per connected master and slave (bytes)
system.iobus.pkt_count_system.ruby.l0_cntrl0.sequencer.mem-master-port::system.ruby.l0_cntrl0.sequencer.pio-slave-port         1862                       # Packet count per connected master and slave (bytes)
system.iobus.pkt_count_system.ruby.l0_cntrl0.sequencer.mem-master-port::system.ruby.l0_cntrl1.sequencer.pio-slave-port            2                       # Packet count per connected master and slave (bytes)
system.iobus.pkt_count_system.ruby.l0_cntrl0.sequencer.mem-master-port::system.ruby.l0_cntrl2.sequencer.pio-slave-port            4                       # Packet count per connected master and slave (bytes)
system.iobus.pkt_count_system.ruby.l0_cntrl0.sequencer.mem-master-port::system.ruby.l0_cntrl3.sequencer.pio-slave-port            6                       # Packet count per connected master and slave (bytes)
system.iobus.pkt_count_system.ruby.l0_cntrl0.sequencer.mem-master-port::total         2838                       # Packet count per connected master and slave (bytes)
system.iobus.pkt_count_system.ruby.l0_cntrl1.sequencer.mem-master-port::system.pc.south_bridge.ide.pio         1216                       # Packet count per connected master and slave (bytes)
system.iobus.pkt_count_system.ruby.l0_cntrl1.sequencer.mem-master-port::system.pc.south_bridge.io_apic.pio            6                       # Packet count per connected master and slave (bytes)
system.iobus.pkt_count_system.ruby.l0_cntrl1.sequencer.mem-master-port::system.pc.com_1.pio          174                       # Packet count per connected master and slave (bytes)
system.iobus.pkt_count_system.ruby.l0_cntrl1.sequencer.mem-master-port::system.ruby.l0_cntrl1.sequencer.pio-slave-port         1836                       # Packet count per connected master and slave (bytes)
system.iobus.pkt_count_system.ruby.l0_cntrl1.sequencer.mem-master-port::system.ruby.l0_cntrl2.sequencer.pio-slave-port            2                       # Packet count per connected master and slave (bytes)
system.iobus.pkt_count_system.ruby.l0_cntrl1.sequencer.mem-master-port::total         3234                       # Packet count per connected master and slave (bytes)
system.iobus.pkt_count_system.ruby.l0_cntrl2.sequencer.mem-master-port::system.pc.south_bridge.ide.pio         1012                       # Packet count per connected master and slave (bytes)
system.iobus.pkt_count_system.ruby.l0_cntrl2.sequencer.mem-master-port::system.pc.south_bridge.io_apic.pio            8                       # Packet count per connected master and slave (bytes)
system.iobus.pkt_count_system.ruby.l0_cntrl2.sequencer.mem-master-port::system.ruby.l0_cntrl1.sequencer.pio-slave-port            2                       # Packet count per connected master and slave (bytes)
system.iobus.pkt_count_system.ruby.l0_cntrl2.sequencer.mem-master-port::system.ruby.l0_cntrl2.sequencer.pio-slave-port         1846                       # Packet count per connected master and slave (bytes)
system.iobus.pkt_count_system.ruby.l0_cntrl2.sequencer.mem-master-port::system.ruby.l0_cntrl3.sequencer.pio-slave-port            2                       # Packet count per connected master and slave (bytes)
system.iobus.pkt_count_system.ruby.l0_cntrl2.sequencer.mem-master-port::total         2870                       # Packet count per connected master and slave (bytes)
system.iobus.pkt_count_system.ruby.l0_cntrl3.sequencer.mem-master-port::system.pc.south_bridge.ide.pio          956                       # Packet count per connected master and slave (bytes)
system.iobus.pkt_count_system.ruby.l0_cntrl3.sequencer.mem-master-port::system.pc.south_bridge.io_apic.pio            8                       # Packet count per connected master and slave (bytes)
system.iobus.pkt_count_system.ruby.l0_cntrl3.sequencer.mem-master-port::system.pc.com_1.pio            2                       # Packet count per connected master and slave (bytes)
system.iobus.pkt_count_system.ruby.l0_cntrl3.sequencer.mem-master-port::system.ruby.l0_cntrl0.sequencer.pio-slave-port            2                       # Packet count per connected master and slave (bytes)
system.iobus.pkt_count_system.ruby.l0_cntrl3.sequencer.mem-master-port::system.ruby.l0_cntrl3.sequencer.pio-slave-port         1844                       # Packet count per connected master and slave (bytes)
system.iobus.pkt_count_system.ruby.l0_cntrl3.sequencer.mem-master-port::total         2812                       # Packet count per connected master and slave (bytes)
system.iobus.pkt_count::total                   11942                       # Packet count per connected master and slave (bytes)
system.iobus.pkt_size_system.pc.south_bridge.io_apic.int_master::system.ruby.l0_cntrl0.sequencer.pio-slave-port           96                       # Cumulative packet size per connected master and slave (bytes)
system.iobus.pkt_size_system.pc.south_bridge.io_apic.int_master::system.ruby.l0_cntrl1.sequencer.pio-slave-port           92                       # Cumulative packet size per connected master and slave (bytes)
system.iobus.pkt_size_system.pc.south_bridge.io_apic.int_master::system.ruby.l0_cntrl2.sequencer.pio-slave-port           92                       # Cumulative packet size per connected master and slave (bytes)
system.iobus.pkt_size_system.pc.south_bridge.io_apic.int_master::system.ruby.l0_cntrl3.sequencer.pio-slave-port           96                       # Cumulative packet size per connected master and slave (bytes)
system.iobus.pkt_size_system.pc.south_bridge.io_apic.int_master::total          376                       # Cumulative packet size per connected master and slave (bytes)
system.iobus.pkt_size_system.ruby.l0_cntrl0.sequencer.mem-master-port::system.pc.south_bridge.ide.pio          538                       # Cumulative packet size per connected master and slave (bytes)
system.iobus.pkt_size_system.ruby.l0_cntrl0.sequencer.mem-master-port::system.pc.south_bridge.io_apic.pio           16                       # Cumulative packet size per connected master and slave (bytes)
system.iobus.pkt_size_system.ruby.l0_cntrl0.sequencer.mem-master-port::system.ruby.l0_cntrl0.sequencer.pio-slave-port         3724                       # Cumulative packet size per connected master and slave (bytes)
system.iobus.pkt_size_system.ruby.l0_cntrl0.sequencer.mem-master-port::system.ruby.l0_cntrl1.sequencer.pio-slave-port            4                       # Cumulative packet size per connected master and slave (bytes)
system.iobus.pkt_size_system.ruby.l0_cntrl0.sequencer.mem-master-port::system.ruby.l0_cntrl2.sequencer.pio-slave-port            8                       # Cumulative packet size per connected master and slave (bytes)
system.iobus.pkt_size_system.ruby.l0_cntrl0.sequencer.mem-master-port::system.ruby.l0_cntrl3.sequencer.pio-slave-port           12                       # Cumulative packet size per connected master and slave (bytes)
system.iobus.pkt_size_system.ruby.l0_cntrl0.sequencer.mem-master-port::total         4302                       # Cumulative packet size per connected master and slave (bytes)
system.iobus.pkt_size_system.ruby.l0_cntrl1.sequencer.mem-master-port::system.pc.south_bridge.ide.pio          692                       # Cumulative packet size per connected master and slave (bytes)
system.iobus.pkt_size_system.ruby.l0_cntrl1.sequencer.mem-master-port::system.pc.south_bridge.io_apic.pio           12                       # Cumulative packet size per connected master and slave (bytes)
system.iobus.pkt_size_system.ruby.l0_cntrl1.sequencer.mem-master-port::system.pc.com_1.pio           87                       # Cumulative packet size per connected master and slave (bytes)
system.iobus.pkt_size_system.ruby.l0_cntrl1.sequencer.mem-master-port::system.ruby.l0_cntrl1.sequencer.pio-slave-port         3672                       # Cumulative packet size per connected master and slave (bytes)
system.iobus.pkt_size_system.ruby.l0_cntrl1.sequencer.mem-master-port::system.ruby.l0_cntrl2.sequencer.pio-slave-port            4                       # Cumulative packet size per connected master and slave (bytes)
system.iobus.pkt_size_system.ruby.l0_cntrl1.sequencer.mem-master-port::total         4467                       # Cumulative packet size per connected master and slave (bytes)
system.iobus.pkt_size_system.ruby.l0_cntrl2.sequencer.mem-master-port::system.pc.south_bridge.ide.pio          572                       # Cumulative packet size per connected master and slave (bytes)
system.iobus.pkt_size_system.ruby.l0_cntrl2.sequencer.mem-master-port::system.pc.south_bridge.io_apic.pio           16                       # Cumulative packet size per connected master and slave (bytes)
system.iobus.pkt_size_system.ruby.l0_cntrl2.sequencer.mem-master-port::system.ruby.l0_cntrl1.sequencer.pio-slave-port            4                       # Cumulative packet size per connected master and slave (bytes)
system.iobus.pkt_size_system.ruby.l0_cntrl2.sequencer.mem-master-port::system.ruby.l0_cntrl2.sequencer.pio-slave-port         3692                       # Cumulative packet size per connected master and slave (bytes)
system.iobus.pkt_size_system.ruby.l0_cntrl2.sequencer.mem-master-port::system.ruby.l0_cntrl3.sequencer.pio-slave-port            4                       # Cumulative packet size per connected master and slave (bytes)
system.iobus.pkt_size_system.ruby.l0_cntrl2.sequencer.mem-master-port::total         4288                       # Cumulative packet size per connected master and slave (bytes)
system.iobus.pkt_size_system.ruby.l0_cntrl3.sequencer.mem-master-port::system.pc.south_bridge.ide.pio          538                       # Cumulative packet size per connected master and slave (bytes)
system.iobus.pkt_size_system.ruby.l0_cntrl3.sequencer.mem-master-port::system.pc.south_bridge.io_apic.pio           16                       # Cumulative packet size per connected master and slave (bytes)
system.iobus.pkt_size_system.ruby.l0_cntrl3.sequencer.mem-master-port::system.pc.com_1.pio            1                       # Cumulative packet size per connected master and slave (bytes)
system.iobus.pkt_size_system.ruby.l0_cntrl3.sequencer.mem-master-port::system.ruby.l0_cntrl0.sequencer.pio-slave-port            4                       # Cumulative packet size per connected master and slave (bytes)
system.iobus.pkt_size_system.ruby.l0_cntrl3.sequencer.mem-master-port::system.ruby.l0_cntrl3.sequencer.pio-slave-port         3688                       # Cumulative packet size per connected master and slave (bytes)
system.iobus.pkt_size_system.ruby.l0_cntrl3.sequencer.mem-master-port::total         4247                       # Cumulative packet size per connected master and slave (bytes)
system.iobus.pkt_size::total                    17680                       # Cumulative packet size per connected master and slave (bytes)
system.iobus.reqLayer2.occupancy              3610500                       # Layer occupancy (ticks)
system.iobus.reqLayer2.utilization                0.0                       # Layer utilization (%)
system.iobus.reqLayer8.occupancy                27996                       # Layer occupancy (ticks)
system.iobus.reqLayer8.utilization                0.0                       # Layer utilization (%)
system.iobus.reqLayer12.occupancy              114000                       # Layer occupancy (ticks)
system.iobus.reqLayer12.utilization               0.0                       # Layer utilization (%)
system.iobus.reqLayer17.occupancy             2604116                       # Layer occupancy (ticks)
system.iobus.reqLayer17.utilization               0.0                       # Layer utilization (%)
system.iobus.reqLayer18.occupancy             2303478                       # Layer occupancy (ticks)
system.iobus.reqLayer18.utilization               0.0                       # Layer utilization (%)
system.iobus.reqLayer19.occupancy             2311471                       # Layer occupancy (ticks)
system.iobus.reqLayer19.utilization               0.0                       # Layer utilization (%)
system.iobus.reqLayer20.occupancy             2316476                       # Layer occupancy (ticks)
system.iobus.reqLayer20.utilization               0.0                       # Layer utilization (%)
system.iobus.respLayer0.occupancy              163410                       # Layer occupancy (ticks)
system.iobus.respLayer0.utilization               0.0                       # Layer utilization (%)
system.iobus.respLayer2.occupancy             2064000                       # Layer occupancy (ticks)
system.iobus.respLayer2.utilization               0.0                       # Layer utilization (%)
system.iobus.respLayer4.occupancy             2343500                       # Layer occupancy (ticks)
system.iobus.respLayer4.utilization               0.0                       # Layer utilization (%)
system.iobus.respLayer6.occupancy             2076500                       # Layer occupancy (ticks)
system.iobus.respLayer6.utilization               0.0                       # Layer utilization (%)
system.iobus.respLayer8.occupancy             2042000                       # Layer occupancy (ticks)
system.iobus.respLayer8.utilization               0.0                       # Layer utilization (%)
system.pc.south_bridge.ide.disks.dma_read_full_pages         1432                       # Number of full page size DMA reads (not PRD).
system.pc.south_bridge.ide.disks.dma_read_bytes      5865472                       # Number of bytes transfered via DMA reads (not PRD).
system.pc.south_bridge.ide.disks.dma_read_txs         1432                       # Number of DMA read transactions (not PRD).
system.pc.south_bridge.ide.disks.dma_write_full_pages           45                       # Number of full page size DMA writes.
system.pc.south_bridge.ide.disks.dma_write_bytes       184320                       # Number of bytes transfered via DMA writes.
system.pc.south_bridge.ide.disks.dma_write_txs           45                       # Number of DMA write transactions.
system.ruby.clk_domain.clock                      500                       # Clock period in ticks
system.ruby.delayHist::bucket_size                  4                       # delay histogram for all message
system.ruby.delayHist::max_bucket                  39                       # delay histogram for all message
system.ruby.delayHist::samples              391735814                       # delay histogram for all message
system.ruby.delayHist::mean                  0.081023                       # delay histogram for all message
system.ruby.delayHist::stdev                 0.800583                       # delay histogram for all message
system.ruby.delayHist                    |   387767433     98.99%     98.99% |       23799      0.01%     98.99% |     3943511      1.01%    100.00% |         340      0.00%    100.00% |         680      0.00%    100.00% |          21      0.00%    100.00% |          29      0.00%    100.00% |           1      0.00%    100.00% |           0      0.00%    100.00% |           0      0.00%    100.00% # delay histogram for all message
system.ruby.delayHist::total                391735814                       # delay histogram for all message
system.ruby.outstanding_req_hist_seqr::bucket_size            1                      
system.ruby.outstanding_req_hist_seqr::max_bucket            9                      
system.ruby.outstanding_req_hist_seqr::samples   2884895480                      
system.ruby.outstanding_req_hist_seqr::mean     1.000000                      
system.ruby.outstanding_req_hist_seqr::gmean     1.000000                      
system.ruby.outstanding_req_hist_seqr::stdev     0.000262                      
system.ruby.outstanding_req_hist_seqr    |           0      0.00%      0.00% |  2884895282    100.00%    100.00% |         198      0.00%    100.00% |           0      0.00%    100.00% |           0      0.00%    100.00% |           0      0.00%    100.00% |           0      0.00%    100.00% |           0      0.00%    100.00% |           0      0.00%    100.00% |           0      0.00%    100.00%
system.ruby.outstanding_req_hist_seqr::total   2884895480                      
system.ruby.latency_hist_seqr::bucket_size          256                      
system.ruby.latency_hist_seqr::max_bucket         2559                      
system.ruby.latency_hist_seqr::samples     2884895480                      
system.ruby.latency_hist_seqr::mean          1.487454                      
system.ruby.latency_hist_seqr::gmean         1.114258                      
system.ruby.latency_hist_seqr::stdev         2.831663                      
[...]
system.ruby.L1Cache_Controller.Data_Exclusive::total     44505937                      
system.ruby.L1Cache_Controller.DataS_fromL1 |        2934     12.90%     12.90% |        5433     23.88%     36.78% |        9811     43.12%     79.90% |        4573     20.10%    100.00%
system.ruby.L1Cache_Controller.DataS_fromL1::total        22751                      
system.ruby.L1Cache_Controller.Data_all_Acks |     2881763     86.65%     86.65% |      134533      4.05%     90.69% |      169590      5.10%     95.79% |      139984      4.21%    100.00%
system.ruby.L1Cache_Controller.Data_all_Acks::total      3325870                      
system.ruby.L1Cache_Controller.L0_Ack    |     4294507     90.72%     90.72% |      120791      2.55%     93.27% |      197377      4.17%     97.44% |      121338      2.56%    100.00%
system.ruby.L1Cache_Controller.L0_Ack::total      4734013                      
system.ruby.L1Cache_Controller.Ack       |       17878     56.90%     56.90% |        4967     15.81%     72.70% |        4394     13.98%     86.69% |        4183     13.31%    100.00%
system.ruby.L1Cache_Controller.Ack::total        31422                      
system.ruby.L1Cache_Controller.Ack_all   |        8038     42.60%     42.60% |        3936     20.86%     63.46% |        3522     18.67%     82.12% |        3373     17.88%    100.00%
system.ruby.L1Cache_Controller.Ack_all::total        18869                      
system.ruby.L1Cache_Controller.WB_Ack    |    46383347     98.22%     98.22% |      136657      0.29%     98.51% |      591423      1.25%     99.76% |      112220      0.24%    100.00%
system.ruby.L1Cache_Controller.WB_Ack::total     47223647                      
system.ruby.L1Cache_Controller.I.Load    |    44053205     97.62%     97.62% |      227050      0.50%     98.12% |      640729      1.42%     99.54% |      205753      0.46%    100.00%
system.ruby.L1Cache_Controller.I.Load::total     45126737                      
system.ruby.L1Cache_Controller.I.Store   |     2608125     95.40%     95.40% |       29965      1.10%     96.50% |       67385      2.46%     98.96% |       28300      1.04%    100.00%
system.ruby.L1Cache_Controller.I.Store::total      2733775                      
system.ruby.L1Cache_Controller.I.Inv     |        3103     15.74%     15.74% |        4687     23.78%     39.52% |        5826     29.55%     69.07% |        6097     30.93%    100.00%
system.ruby.L1Cache_Controller.I.Inv::total        19713                      
system.ruby.L1Cache_Controller.S.Load    |      257021     27.80%     27.80% |      231994     25.09%     52.89% |      213531     23.09%     75.98% |      222061     24.02%    100.00%
system.ruby.L1Cache_Controller.S.Load::total       924607                      
system.ruby.L1Cache_Controller.S.Store   |        5120     41.04%     41.04% |        2740     21.96%     63.01% |        2360     18.92%     81.92% |        2255     18.08%    100.00%
system.ruby.L1Cache_Controller.S.Store::total        12475                      
system.ruby.L1Cache_Controller.S.L0_Invalidate_Own |      273941     45.86%     45.86% |      107981     18.08%     63.94% |      105338     17.64%     81.58% |      110020     18.42%    100.00%
system.ruby.L1Cache_Controller.S.L0_Invalidate_Own::total       597280                      
system.ruby.L1Cache_Controller.S.L0_Invalidate_Else |         574      3.76%      3.76% |        1963     12.85%     16.61% |        6490     42.49%     59.10% |        6247     40.90%    100.00%
system.ruby.L1Cache_Controller.S.L0_Invalidate_Else::total        15274                      
system.ruby.L1Cache_Controller.SS.Load   |         490     11.29%     11.29% |        1531     35.26%     46.55% |        1154     26.58%     73.12% |        1167     26.88%    100.00%
system.ruby.L1Cache_Controller.SS.Load::total         4342                      
system.ruby.L1Cache_Controller.SS.Store  |         114     25.91%     25.91% |         161     36.59%     62.50% |          77     17.50%     80.00% |          88     20.00%    100.00%
system.ruby.L1Cache_Controller.SS.Store::total          440                      
system.ruby.L1Cache_Controller.SS.Inv    |        1773      6.31%      6.31% |        9260     32.98%     39.30% |        8659     30.84%     70.14% |        8385     29.86%    100.00%
system.ruby.L1Cache_Controller.SS.Inv::total        28077                      
system.ruby.L1Cache_Controller.SS.L1_Replacement |      275035     45.65%     45.65% |      109181     18.12%     63.76% |      106442     17.67%     81.43% |      111893     18.57%    100.00%
system.ruby.L1Cache_Controller.SS.L1_Replacement::total       602551                      
system.ruby.L1Cache_Controller.E.WriteBack |    41978862     98.44%     98.44% |      108909      0.26%     98.69% |      472996      1.11%     99.80% |       85337      0.20%    100.00%
system.ruby.L1Cache_Controller.E.WriteBack::total     42646104                      
system.ruby.L1Cache_Controller.E.L0_Invalidate_Own |     1794822     96.65%     96.65% |        4995      0.27%     96.92% |       54387      2.93%     99.85% |        2824      0.15%    100.00%
system.ruby.L1Cache_Controller.E.L0_Invalidate_Own::total      1857028                      
system.ruby.L1Cache_Controller.E.L0_Invalidate_Else |         180      6.40%      6.40% |        2100     74.68%     81.08% |         236      8.39%     89.47% |         296     10.53%    100.00%
system.ruby.L1Cache_Controller.E.L0_Invalidate_Else::total         2812                      
system.ruby.L1Cache_Controller.EE.Inv    |           8      7.02%      7.02% |          25     21.93%     28.95% |          37     32.46%     61.40% |          44     38.60%    100.00%
system.ruby.L1Cache_Controller.EE.Inv::total          114                      
system.ruby.L1Cache_Controller.EE.L1_Replacement |     1785369     96.75%     96.75% |        4282      0.23%     96.98% |       53559      2.90%     99.88% |        2190      0.12%    100.00%
system.ruby.L1Cache_Controller.EE.L1_Replacement::total      1845400                      
system.ruby.L1Cache_Controller.EE.Fwd_GETX |           8     32.00%     32.00% |           5     20.00%     52.00% |           3     12.00%     64.00% |           9     36.00%    100.00%
system.ruby.L1Cache_Controller.EE.Fwd_GETX::total           25                      
system.ruby.L1Cache_Controller.EE.Fwd_GETS |         128      5.43%      5.43% |        1953     82.89%     88.33% |         133      5.65%     93.97% |         142      6.03%    100.00%
system.ruby.L1Cache_Controller.EE.Fwd_GETS::total         2356                      
system.ruby.L1Cache_Controller.M.WriteBack |    98795472     96.00%     96.00% |      233822      0.23%     96.22% |     3704225      3.60%     99.82% |      182047      0.18%    100.00%
system.ruby.L1Cache_Controller.M.WriteBack::total    102915566                      
system.ruby.L1Cache_Controller.M.L0_Invalidate_Own |     2477054     97.93%     97.93% |        8787      0.35%     98.27% |       37128      1.47%     99.74% |        6518      0.26%    100.00%
system.ruby.L1Cache_Controller.M.L0_Invalidate_Own::total      2529487                      
system.ruby.L1Cache_Controller.M.L0_Invalidate_Else |        1498     16.11%     16.11% |        2888     31.06%     47.18% |        2354     25.32%     72.50% |        2557     27.50%    100.00%
system.ruby.L1Cache_Controller.M.L0_Invalidate_Else::total         9297                      
system.ruby.L1Cache_Controller.MM.Load   |    89762152     96.16%     96.16% |      169195      0.18%     96.35% |     3296949      3.53%     99.88% |      114627      0.12%    100.00%
system.ruby.L1Cache_Controller.MM.Load::total     93342923                      
system.ruby.L1Cache_Controller.MM.Store  |     8898492     95.02%     95.02% |       43449      0.46%     95.49% |      376928      4.02%     99.51% |       45851      0.49%    100.00%
system.ruby.L1Cache_Controller.MM.Store::total      9364720                      
system.ruby.L1Cache_Controller.MM.Inv    |         212     12.15%     12.15% |         535     30.66%     42.81% |         442     25.33%     68.14% |         556     31.86%    100.00%
system.ruby.L1Cache_Controller.MM.Inv::total         1745                      
system.ruby.L1Cache_Controller.MM.L1_Replacement |    44597978     98.28%     98.28% |      132375      0.29%     98.57% |      537864      1.19%     99.76% |      110030      0.24%    100.00%
system.ruby.L1Cache_Controller.MM.L1_Replacement::total     45378247                      
system.ruby.L1Cache_Controller.MM.Fwd_GETX |        1003     22.77%     22.77% |        1314     29.83%     52.60% |        1141     25.90%     78.50% |         947     21.50%    100.00%
system.ruby.L1Cache_Controller.MM.Fwd_GETX::total         4405                      
system.ruby.L1Cache_Controller.MM.Fwd_GETS |        2781     13.64%     13.64% |        8144     39.93%     53.57% |        4373     21.44%     75.01% |        5097     24.99%    100.00%
system.ruby.L1Cache_Controller.MM.Fwd_GETS::total        20395                      
system.ruby.L1Cache_Controller.IS.Data_Exclusive |    43773829     98.36%     98.36% |      116014      0.26%     98.62% |      527628      1.19%     99.80% |       88466      0.20%    100.00%
system.ruby.L1Cache_Controller.IS.Data_Exclusive::total     44505937                      
system.ruby.L1Cache_Controller.IS.DataS_fromL1 |        2934     12.90%     12.90% |        5433     23.88%     36.78% |        9811     43.12%     79.90% |        4573     20.10%    100.00%
system.ruby.L1Cache_Controller.IS.DataS_fromL1::total        22751                      
system.ruby.L1Cache_Controller.IS.Data_all_Acks |      276442     46.22%     46.22% |      105603     17.66%     63.88% |      103290     17.27%     81.15% |      112714     18.85%    100.00%
system.ruby.L1Cache_Controller.IS.Data_all_Acks::total       598049                      
system.ruby.L1Cache_Controller.IM.Data   |        2804     47.07%     47.07% |        1037     17.41%     64.48% |        1086     18.23%     82.71% |        1030     17.29%    100.00%
system.ruby.L1Cache_Controller.IM.Data::total         5957                      
system.ruby.L1Cache_Controller.IM.Data_all_Acks |     2605321     95.51%     95.51% |       28930      1.06%     96.57% |       66300      2.43%     99.00% |       27270      1.00%    100.00%
system.ruby.L1Cache_Controller.IM.Data_all_Acks::total      2727821                      
system.ruby.L1Cache_Controller.SM.Inv    |           0      0.00%      0.00% |           2     66.67%     66.67% |           1     33.33%    100.00% |           0      0.00%    100.00%
system.ruby.L1Cache_Controller.SM.Inv::total            3                      
system.ruby.L1Cache_Controller.SM.Ack    |       17878     56.90%     56.90% |        4967     15.81%     72.70% |        4394     13.98%     86.69% |        4183     13.31%    100.00%
system.ruby.L1Cache_Controller.SM.Ack::total        31422                      
system.ruby.L1Cache_Controller.SM.Ack_all |        8038     42.60%     42.60% |        3936     20.86%     63.46% |        3522     18.67%     82.12% |        3373     17.88%    100.00%
system.ruby.L1Cache_Controller.SM.Ack_all::total        18869                      
system.ruby.L1Cache_Controller.M_I.WB_Ack |    46383347     98.22%     98.22% |      136657      0.29%     98.51% |      591423      1.25%     99.76% |      112220      0.24%    100.00%
system.ruby.L1Cache_Controller.M_I.WB_Ack::total     47223647                      
system.ruby.L1Cache_Controller.S_IL0.L0_Invalidate_Own |      273941     45.86%     45.86% |      107981     18.08%     63.94% |      105338     17.64%     81.58% |      110020     18.42%    100.00%
system.ruby.L1Cache_Controller.S_IL0.L0_Invalidate_Own::total       597280                      
system.ruby.L1Cache_Controller.S_IL0.L0_Invalidate_Else |         574      3.76%      3.76% |        1963     12.85%     16.61% |        6490     42.49%     59.10% |        6247     40.90%    100.00%
system.ruby.L1Cache_Controller.S_IL0.L0_Invalidate_Else::total        15274                      
system.ruby.L1Cache_Controller.S_IL0.L0_Ack |      274515     44.81%     44.81% |      109944     17.95%     62.76% |      111828     18.26%     81.02% |      116267     18.98%    100.00%
system.ruby.L1Cache_Controller.S_IL0.L0_Ack::total       612554                      
system.ruby.L1Cache_Controller.E_IL0.L0_DataAck |        9489     79.44%     79.44% |         830      6.95%     86.39% |         891      7.46%     93.85% |         735      6.15%    100.00%
system.ruby.L1Cache_Controller.E_IL0.L0_DataAck::total        11945                      
system.ruby.L1Cache_Controller.E_IL0.L0_Invalidate_Own |     1794822     96.65%     96.65% |        4995      0.27%     96.92% |       54387      2.93%     99.85% |        2824      0.15%    100.00%
system.ruby.L1Cache_Controller.E_IL0.L0_Invalidate_Own::total      1857028                      
system.ruby.L1Cache_Controller.E_IL0.L0_Invalidate_Else |         180      6.40%      6.40% |        2100     74.68%     81.08% |         236      8.39%     89.47% |         296     10.53%    100.00%
system.ruby.L1Cache_Controller.E_IL0.L0_Invalidate_Else::total         2812                      
system.ruby.L1Cache_Controller.E_IL0.L0_Ack |     1785513     96.62%     96.62% |        6265      0.34%     96.96% |       53732      2.91%     99.87% |        2385      0.13%    100.00%
system.ruby.L1Cache_Controller.E_IL0.L0_Ack::total      1847895                      
system.ruby.L1Cache_Controller.M_IL0.L0_DataAck |      244073     92.03%     92.03% |        7093      2.67%     94.70% |        7665      2.89%     97.59% |        6389      2.41%    100.00%
system.ruby.L1Cache_Controller.M_IL0.L0_DataAck::total       265220                      
system.ruby.L1Cache_Controller.M_IL0.L0_Invalidate_Own |     2477054     97.93%     97.93% |        8787      0.35%     98.27% |       37128      1.47%     99.74% |        6518      0.26%    100.00%
system.ruby.L1Cache_Controller.M_IL0.L0_Invalidate_Own::total      2529487                      
system.ruby.L1Cache_Controller.M_IL0.L0_Invalidate_Else |        1498     16.11%     16.11% |        2888     31.06%     47.18% |        2354     25.32%     72.50% |        2557     27.50%    100.00%
system.ruby.L1Cache_Controller.M_IL0.L0_Invalidate_Else::total         9297                      
system.ruby.L1Cache_Controller.M_IL0.L0_Ack |     2234479     98.28%     98.28% |        4582      0.20%     98.48% |       31817      1.40%     99.88% |        2686      0.12%    100.00%
system.ruby.L1Cache_Controller.M_IL0.L0_Ack::total      2273564                      
system.ruby.L2Cache_Controller.L1_GETS       45127127      0.00%      0.00%
system.ruby.L2Cache_Controller.L1_GETX        2733789      0.00%      0.00%
system.ruby.L2Cache_Controller.L1_UPGRADE        12915      0.00%      0.00%
system.ruby.L2Cache_Controller.L1_PUTX       47223647      0.00%      0.00%
system.ruby.L2Cache_Controller.L2_Replacement        40849      0.00%      0.00%
system.ruby.L2Cache_Controller.L2_Replacement_clean        91691      0.00%      0.00%
system.ruby.L2Cache_Controller.Mem_Data        149049      0.00%      0.00%
system.ruby.L2Cache_Controller.Mem_Ack         133122      0.00%      0.00%
system.ruby.L2Cache_Controller.WB_Data          11320      0.00%      0.00%
system.ruby.L2Cache_Controller.WB_Data_clean        13176      0.00%      0.00%
system.ruby.L2Cache_Controller.Ack               7059      0.00%      0.00%
system.ruby.L2Cache_Controller.Ack_all           3469      0.00%      0.00%
system.ruby.L2Cache_Controller.Unblock          22751      0.00%      0.00%
system.ruby.L2Cache_Controller.Exclusive_Unblock     47252627      0.00%      0.00%
system.ruby.L2Cache_Controller.MEM_Inv           1164      0.00%      0.00%
system.ruby.L2Cache_Controller.NP.L1_GETS       120342      0.00%      0.00%
system.ruby.L2Cache_Controller.NP.L1_GETX        28707      0.00%      0.00%
system.ruby.L2Cache_Controller.SS.L1_GETS       598029      0.00%      0.00%
system.ruby.L2Cache_Controller.SS.L1_GETX         5957      0.00%      0.00%
system.ruby.L2Cache_Controller.SS.L1_UPGRADE        12912      0.00%      0.00%
system.ruby.L2Cache_Controller.SS.L2_Replacement          560      0.00%      0.00%
system.ruby.L2Cache_Controller.SS.L2_Replacement_clean         2795      0.00%      0.00%
system.ruby.L2Cache_Controller.M.L1_GETS     44385605      0.00%      0.00%
system.ruby.L2Cache_Controller.M.L1_GETX      2694684      0.00%      0.00%
system.ruby.L2Cache_Controller.M.L2_Replacement        39688      0.00%      0.00%
system.ruby.L2Cache_Controller.M.L2_Replacement_clean        87796      0.00%      0.00%
system.ruby.L2Cache_Controller.M.MEM_Inv          424      0.00%      0.00%
system.ruby.L2Cache_Controller.MT.L1_GETS        22751      0.00%      0.00%
system.ruby.L2Cache_Controller.MT.L1_GETX         4430      0.00%      0.00%
system.ruby.L2Cache_Controller.MT.L1_PUTX     47223647      0.00%      0.00%
system.ruby.L2Cache_Controller.MT.L2_Replacement          601      0.00%      0.00%
system.ruby.L2Cache_Controller.MT.L2_Replacement_clean         1100      0.00%      0.00%
system.ruby.L2Cache_Controller.MT.MEM_Inv          158      0.00%      0.00%
system.ruby.L2Cache_Controller.M_I.Mem_Ack       133122      0.00%      0.00%
system.ruby.L2Cache_Controller.M_I.MEM_Inv          424      0.00%      0.00%
system.ruby.L2Cache_Controller.MT_I.WB_Data          713      0.00%      0.00%
system.ruby.L2Cache_Controller.MT_I.WB_Data_clean           39      0.00%      0.00%
system.ruby.L2Cache_Controller.MT_I.Ack_all            7      0.00%      0.00%
system.ruby.L2Cache_Controller.MT_I.MEM_Inv          158      0.00%      0.00%
system.ruby.L2Cache_Controller.MCT_I.WB_Data          524      0.00%      0.00%
system.ruby.L2Cache_Controller.MCT_I.WB_Data_clean          469      0.00%      0.00%
system.ruby.L2Cache_Controller.MCT_I.Ack_all          107      0.00%      0.00%
system.ruby.L2Cache_Controller.I_I.Ack           6398      0.00%      0.00%
system.ruby.L2Cache_Controller.I_I.Ack_all         2795      0.00%      0.00%
system.ruby.L2Cache_Controller.S_I.Ack            661      0.00%      0.00%
system.ruby.L2Cache_Controller.S_I.Ack_all          560      0.00%      0.00%
system.ruby.L2Cache_Controller.ISS.L1_GETS           10      0.00%      0.00%
system.ruby.L2Cache_Controller.ISS.Mem_Data       120332      0.00%      0.00%
system.ruby.L2Cache_Controller.IS.Mem_Data           10      0.00%      0.00%
system.ruby.L2Cache_Controller.IM.Mem_Data        28707      0.00%      0.00%
system.ruby.L2Cache_Controller.SS_MB.L1_GETS          143      0.00%      0.00%
system.ruby.L2Cache_Controller.SS_MB.L1_GETX            2      0.00%      0.00%
system.ruby.L2Cache_Controller.SS_MB.L1_UPGRADE            3      0.00%      0.00%
system.ruby.L2Cache_Controller.SS_MB.Exclusive_Unblock        18869      0.00%      0.00%
system.ruby.L2Cache_Controller.MT_MB.L1_GETS          241      0.00%      0.00%
system.ruby.L2Cache_Controller.MT_MB.L1_GETX            7      0.00%      0.00%
system.ruby.L2Cache_Controller.MT_MB.Exclusive_Unblock     47233758      0.00%      0.00%
system.ruby.L2Cache_Controller.MT_IIB.L1_GETS            6      0.00%      0.00%
system.ruby.L2Cache_Controller.MT_IIB.L1_GETX            2      0.00%      0.00%
system.ruby.L2Cache_Controller.MT_IIB.WB_Data        10078      0.00%      0.00%
system.ruby.L2Cache_Controller.MT_IIB.WB_Data_clean        12653      0.00%      0.00%
system.ruby.L2Cache_Controller.MT_IIB.Unblock           20      0.00%      0.00%
system.ruby.L2Cache_Controller.MT_IB.WB_Data            5      0.00%      0.00%
system.ruby.L2Cache_Controller.MT_IB.WB_Data_clean           15      0.00%      0.00%
system.ruby.L2Cache_Controller.MT_SB.Unblock        22731      0.00%      0.00%

---------- End Simulation Statistics   ----------
