
---------- Begin Simulation Statistics ----------
sim_seconds                                  0.462039                       # Number of seconds simulated
sim_ticks                                462039363500                       # Number of ticks simulated
final_tick                               52483355047501                       # Number of ticks from beginning of simulation (restored from checkpoints and never reset)
sim_freq                                 1000000000000                       # Frequency of simulated ticks
host_inst_rate                                 144508                       # Simulator instruction rate (inst/s)
host_op_rate                                   260804                       # Simulator op (including micro ops) rate (op/s)
host_tick_rate                              248362417                       # Simulator tick rate (ticks/s)
host_mem_usage                                1819804                       # Number of bytes of host memory used
host_seconds                                  1860.34                       # Real time elapsed on the host
sim_insts                                   268834054                       # Number of instructions simulated
sim_ops                                     485184977                       # Number of ops (including micro ops) simulated
system.voltage_domain.voltage                       1                       # Voltage in Volts
system.clk_domain.clock                          1000                       # Clock period in ticks
system.mem_ctrls.bytes_read::ruby.dir_cntrl0       410880                       # Number of bytes read from this memory
system.mem_ctrls.bytes_read::total             410880                       # Number of bytes read from this memory
system.mem_ctrls.bytes_written::ruby.dir_cntrl0       137280                       # Number of bytes written to this memory
system.mem_ctrls.bytes_written::total          137280                       # Number of bytes written to this memory
system.mem_ctrls.num_reads::ruby.dir_cntrl0         6420                       # Number of read requests responded to by this memory
system.mem_ctrls.num_reads::total                6420                       # Number of read requests responded to by this memory
system.mem_ctrls.num_writes::ruby.dir_cntrl0         2145                       # Number of write requests responded to by this memory
system.mem_ctrls.num_writes::total               2145                       # Number of write requests responded to by this memory
system.mem_ctrls.bw_read::ruby.dir_cntrl0       889275                       # Total read bandwidth from this memory (bytes/s)
system.mem_ctrls.bw_read::total                889275                       # Total read bandwidth from this memory (bytes/s)
system.mem_ctrls.bw_write::ruby.dir_cntrl0       297118                       # Write bandwidth from this memory (bytes/s)
system.mem_ctrls.bw_write::total               297118                       # Write bandwidth from this memory (bytes/s)
system.mem_ctrls.bw_total::ruby.dir_cntrl0      1186392                       # Total bandwidth to/from this memory (bytes/s)
system.mem_ctrls.bw_total::total              1186392                       # Total bandwidth to/from this memory (bytes/s)
system.mem_ctrls.readReqs                        6420                       # Number of read requests accepted
system.mem_ctrls.writeReqs                       2145                       # Number of write requests accepted
system.mem_ctrls.readBursts                      6420                       # Number of DRAM read bursts, including those serviced by the write queue
system.mem_ctrls.writeBursts                     2145                       # Number of DRAM write bursts, including those merged in the write queue
system.mem_ctrls.bytesReadDRAM                 410880                       # Total number of bytes read from DRAM
system.mem_ctrls.bytesReadWrQ                       0                       # Total number of bytes read from write queue
system.mem_ctrls.bytesWritten                  136320                       # Total number of bytes written to DRAM
system.mem_ctrls.bytesReadSys                  410880                       # Total read bytes from the system interface side
system.mem_ctrls.bytesWrittenSys               137280                       # Total written bytes from the system interface side
system.mem_ctrls.servicedByWrQ                      0                       # Number of DRAM read bursts serviced by the write queue
system.mem_ctrls.mergedWrBursts                     0                       # Number of DRAM write bursts merged with an existing one
system.mem_ctrls.neitherReadNorWriteReqs            0                       # Number of requests that are neither read nor write
system.mem_ctrls.perBankRdBursts::0               241                       # Per bank write bursts
system.mem_ctrls.perBankRdBursts::1               257                       # Per bank write bursts
system.mem_ctrls.perBankRdBursts::2               278                       # Per bank write bursts
system.mem_ctrls.perBankRdBursts::3               338                       # Per bank write bursts
system.mem_ctrls.perBankRdBursts::4               356                       # Per bank write bursts
system.mem_ctrls.perBankRdBursts::5               603                       # Per bank write bursts
system.mem_ctrls.perBankRdBursts::6               640                       # Per bank write bursts
system.mem_ctrls.perBankRdBursts::7               456                       # Per bank write bursts
system.mem_ctrls.perBankRdBursts::8               589                       # Per bank write bursts
system.mem_ctrls.perBankRdBursts::9               376                       # Per bank write bursts
system.mem_ctrls.perBankRdBursts::10              300                       # Per bank write bursts
system.mem_ctrls.perBankRdBursts::11              302                       # Per bank write bursts
system.mem_ctrls.perBankRdBursts::12              479                       # Per bank write bursts
system.mem_ctrls.perBankRdBursts::13              657                       # Per bank write bursts
system.mem_ctrls.perBankRdBursts::14              408                       # Per bank write bursts
system.mem_ctrls.perBankRdBursts::15              140                       # Per bank write bursts
system.mem_ctrls.perBankWrBursts::0               128                       # Per bank write bursts
system.mem_ctrls.perBankWrBursts::1               128                       # Per bank write bursts
system.mem_ctrls.perBankWrBursts::2                 0                       # Per bank write bursts
system.mem_ctrls.perBankWrBursts::3                 0                       # Per bank write bursts
system.mem_ctrls.perBankWrBursts::4                 0                       # Per bank write bursts
system.mem_ctrls.perBankWrBursts::5                64                       # Per bank write bursts
system.mem_ctrls.perBankWrBursts::6                82                       # Per bank write bursts
system.mem_ctrls.perBankWrBursts::7               192                       # Per bank write bursts
system.mem_ctrls.perBankWrBursts::8               128                       # Per bank write bursts
system.mem_ctrls.perBankWrBursts::9               128                       # Per bank write bursts
system.mem_ctrls.perBankWrBursts::10              128                       # Per bank write bursts
system.mem_ctrls.perBankWrBursts::11              128                       # Per bank write bursts
system.mem_ctrls.perBankWrBursts::12              256                       # Per bank write bursts
system.mem_ctrls.perBankWrBursts::13              256                       # Per bank write bursts
system.mem_ctrls.perBankWrBursts::14              320                       # Per bank write bursts
system.mem_ctrls.perBankWrBursts::15              192                       # Per bank write bursts
system.mem_ctrls.numRdRetry                         0                       # Number of times read queue was full causing retry
system.mem_ctrls.numWrRetry                         0                       # Number of times write queue was full causing retry
system.mem_ctrls.totGap                  462039285000                       # Total gap between requests
system.mem_ctrls.readPktSize::0                     0                       # Read request sizes (log2)
system.mem_ctrls.readPktSize::1                     0                       # Read request sizes (log2)
system.mem_ctrls.readPktSize::2                     0                       # Read request sizes (log2)
system.mem_ctrls.readPktSize::3                     0                       # Read request sizes (log2)
system.mem_ctrls.readPktSize::4                     0                       # Read request sizes (log2)
system.mem_ctrls.readPktSize::5                     0                       # Read request sizes (log2)
system.mem_ctrls.readPktSize::6                  6420                       # Read request sizes (log2)
system.mem_ctrls.writePktSize::0                    0                       # Write request sizes (log2)
system.mem_ctrls.writePktSize::1                    0                       # Write request sizes (log2)
system.mem_ctrls.writePktSize::2                    0                       # Write request sizes (log2)
system.mem_ctrls.writePktSize::3                    0                       # Write request sizes (log2)
system.mem_ctrls.writePktSize::4                    0                       # Write request sizes (log2)
system.mem_ctrls.writePktSize::5                    0                       # Write request sizes (log2)
system.mem_ctrls.writePktSize::6                 2145                       # Write request sizes (log2)
system.mem_ctrls.rdQLenPdf::0                    6208                       # What read queue length does an incoming req see
system.mem_ctrls.rdQLenPdf::1                     212                       # What read queue length does an incoming req see
system.mem_ctrls.rdQLenPdf::2                       0                       # What read queue length does an incoming req see
system.mem_ctrls.rdQLenPdf::3                       0                       # What read queue length does an incoming req see
system.mem_ctrls.rdQLenPdf::4                       0                       # What read queue length does an incoming req see
system.mem_ctrls.rdQLenPdf::5                       0                       # What read queue length does an incoming req see
system.mem_ctrls.rdQLenPdf::6                       0                       # What read queue length does an incoming req see
system.mem_ctrls.rdQLenPdf::7                       0                       # What read queue length does an incoming req see
system.mem_ctrls.rdQLenPdf::8                       0                       # What read queue length does an incoming req see
system.mem_ctrls.rdQLenPdf::9                       0                       # What read queue length does an incoming req see
system.mem_ctrls.rdQLenPdf::10                      0                       # What read queue length does an incoming req see
system.mem_ctrls.rdQLenPdf::11                      0                       # What read queue length does an incoming req see
system.mem_ctrls.rdQLenPdf::12                      0                       # What read queue length does an incoming req see
system.mem_ctrls.rdQLenPdf::13                      0                       # What read queue length does an incoming req see
system.mem_ctrls.rdQLenPdf::14                      0                       # What read queue length does an incoming req see
system.mem_ctrls.rdQLenPdf::15                      0                       # What read queue length does an incoming req see
system.mem_ctrls.rdQLenPdf::16                      0                       # What read queue length does an incoming req see
system.mem_ctrls.rdQLenPdf::17                      0                       # What read queue length does an incoming req see
system.mem_ctrls.rdQLenPdf::18                      0                       # What read queue length does an incoming req see
system.mem_ctrls.rdQLenPdf::19                      0                       # What read queue length does an incoming req see
system.mem_ctrls.rdQLenPdf::20                      0                       # What read queue length does an incoming req see
system.mem_ctrls.rdQLenPdf::21                      0                       # What read queue length does an incoming req see
system.mem_ctrls.rdQLenPdf::22                      0                       # What read queue length does an incoming req see
system.mem_ctrls.rdQLenPdf::23                      0                       # What read queue length does an incoming req see
system.mem_ctrls.rdQLenPdf::24                      0                       # What read queue length does an incoming req see
system.mem_ctrls.rdQLenPdf::25                      0                       # What read queue length does an incoming req see
system.mem_ctrls.rdQLenPdf::26                      0                       # What read queue length does an incoming req see
system.mem_ctrls.rdQLenPdf::27                      0                       # What read queue length does an incoming req see
system.mem_ctrls.rdQLenPdf::28                      0                       # What read queue length does an incoming req see
system.mem_ctrls.rdQLenPdf::29                      0                       # What read queue length does an incoming req see
system.mem_ctrls.rdQLenPdf::30                      0                       # What read queue length does an incoming req see
system.mem_ctrls.rdQLenPdf::31                      0                       # What read queue length does an incoming req see
system.mem_ctrls.wrQLenPdf::0                       1                       # What write queue length does an incoming req see
system.mem_ctrls.wrQLenPdf::1                       1                       # What write queue length does an incoming req see
system.mem_ctrls.wrQLenPdf::2                       1                       # What write queue length does an incoming req see
system.mem_ctrls.wrQLenPdf::3                       1                       # What write queue length does an incoming req see
system.mem_ctrls.wrQLenPdf::4                       1                       # What write queue length does an incoming req see
system.mem_ctrls.wrQLenPdf::5                       1                       # What write queue length does an incoming req see
system.mem_ctrls.wrQLenPdf::6                       1                       # What write queue length does an incoming req see
system.mem_ctrls.wrQLenPdf::7                       1                       # What write queue length does an incoming req see
system.mem_ctrls.wrQLenPdf::8                       1                       # What write queue length does an incoming req see
system.mem_ctrls.wrQLenPdf::9                       1                       # What write queue length does an incoming req see
system.mem_ctrls.wrQLenPdf::10                      1                       # What write queue length does an incoming req see
system.mem_ctrls.wrQLenPdf::11                      1                       # What write queue length does an incoming req see
system.mem_ctrls.wrQLenPdf::12                      1                       # What write queue length does an incoming req see
system.mem_ctrls.wrQLenPdf::13                      1                       # What write queue length does an incoming req see
system.mem_ctrls.wrQLenPdf::14                      1                       # What write queue length does an incoming req see
system.mem_ctrls.wrQLenPdf::15                     98                       # What write queue length does an incoming req see
system.mem_ctrls.wrQLenPdf::16                    110                       # What write queue length does an incoming req see
system.mem_ctrls.wrQLenPdf::17                    129                       # What write queue length does an incoming req see
system.mem_ctrls.wrQLenPdf::18                    119                       # What write queue length does an incoming req see
system.mem_ctrls.wrQLenPdf::19                    119                       # What write queue length does an incoming req see
system.mem_ctrls.wrQLenPdf::20                    171                       # What write queue length does an incoming req see
system.mem_ctrls.wrQLenPdf::21                    125                       # What write queue length does an incoming req see
system.mem_ctrls.wrQLenPdf::22                    125                       # What write queue length does an incoming req see
system.mem_ctrls.wrQLenPdf::23                    124                       # What write queue length does an incoming req see
system.mem_ctrls.wrQLenPdf::24                    107                       # What write queue length does an incoming req see
system.mem_ctrls.wrQLenPdf::25                    118                       # What write queue length does an incoming req see
system.mem_ctrls.wrQLenPdf::26                    132                       # What write queue length does an incoming req see
system.mem_ctrls.wrQLenPdf::27                    105                       # What write queue length does an incoming req see
system.mem_ctrls.wrQLenPdf::28                    106                       # What write queue length does an incoming req see
system.mem_ctrls.wrQLenPdf::29                    108                       # What write queue length does an incoming req see
system.mem_ctrls.wrQLenPdf::30                    107                       # What write queue length does an incoming req see
system.mem_ctrls.wrQLenPdf::31                    108                       # What write queue length does an incoming req see
system.mem_ctrls.wrQLenPdf::32                    104                       # What write queue length does an incoming req see
system.mem_ctrls.wrQLenPdf::33                      4                       # What write queue length does an incoming req see
system.mem_ctrls.wrQLenPdf::34                      4                       # What write queue length does an incoming req see
system.mem_ctrls.wrQLenPdf::35                      4                       # What write queue length does an incoming req see
system.mem_ctrls.wrQLenPdf::36                      2                       # What write queue length does an incoming req see
system.mem_ctrls.wrQLenPdf::37                      1                       # What write queue length does an incoming req see
system.mem_ctrls.wrQLenPdf::38                      0                       # What write queue length does an incoming req see
system.mem_ctrls.wrQLenPdf::39                      0                       # What write queue length does an incoming req see
system.mem_ctrls.wrQLenPdf::40                      0                       # What write queue length does an incoming req see
system.mem_ctrls.wrQLenPdf::41                      0                       # What write queue length does an incoming req see
system.mem_ctrls.wrQLenPdf::42                      0                       # What write queue length does an incoming req see
system.mem_ctrls.wrQLenPdf::43                      0                       # What write queue length does an incoming req see
system.mem_ctrls.wrQLenPdf::44                      0                       # What write queue length does an incoming req see
system.mem_ctrls.wrQLenPdf::45                      0                       # What write queue length does an incoming req see
system.mem_ctrls.wrQLenPdf::46                      0                       # What write queue length does an incoming req see
system.mem_ctrls.wrQLenPdf::47                      0                       # What write queue length does an incoming req see
system.mem_ctrls.wrQLenPdf::48                      0                       # What write queue length does an incoming req see
system.mem_ctrls.wrQLenPdf::49                      0                       # What write queue length does an incoming req see
system.mem_ctrls.wrQLenPdf::50                      0                       # What write queue length does an incoming req see
system.mem_ctrls.wrQLenPdf::51                      0                       # What write queue length does an incoming req see
system.mem_ctrls.wrQLenPdf::52                      0                       # What write queue length does an incoming req see
system.mem_ctrls.wrQLenPdf::53                      0                       # What write queue length does an incoming req see
system.mem_ctrls.wrQLenPdf::54                      0                       # What write queue length does an incoming req see
system.mem_ctrls.wrQLenPdf::55                      0                       # What write queue length does an incoming req see
system.mem_ctrls.wrQLenPdf::56                      0                       # What write queue length does an incoming req see
system.mem_ctrls.wrQLenPdf::57                      0                       # What write queue length does an incoming req see
system.mem_ctrls.wrQLenPdf::58                      0                       # What write queue length does an incoming req see
system.mem_ctrls.wrQLenPdf::59                      0                       # What write queue length does an incoming req see
system.mem_ctrls.wrQLenPdf::60                      0                       # What write queue length does an incoming req see
system.mem_ctrls.wrQLenPdf::61                      0                       # What write queue length does an incoming req see
system.mem_ctrls.wrQLenPdf::62                      0                       # What write queue length does an incoming req see
system.mem_ctrls.wrQLenPdf::63                      0                       # What write queue length does an incoming req see
system.mem_ctrls.bytesPerActivate::samples         2605                       # Bytes accessed per row activation
system.mem_ctrls.bytesPerActivate::mean    210.106718                       # Bytes accessed per row activation
system.mem_ctrls.bytesPerActivate::gmean   132.931570                       # Bytes accessed per row activation
system.mem_ctrls.bytesPerActivate::stdev   267.474017                       # Bytes accessed per row activation
system.mem_ctrls.bytesPerActivate::0-127         1016     39.00%     39.00% # Bytes accessed per row activation
system.mem_ctrls.bytesPerActivate::128-255         1089     41.80%     80.81% # Bytes accessed per row activation
system.mem_ctrls.bytesPerActivate::256-383          127      4.88%     85.68% # Bytes accessed per row activation
system.mem_ctrls.bytesPerActivate::384-511           72      2.76%     88.45% # Bytes accessed per row activation
system.mem_ctrls.bytesPerActivate::512-639           44      1.69%     90.13% # Bytes accessed per row activation
system.mem_ctrls.bytesPerActivate::640-767           31      1.19%     91.32% # Bytes accessed per row activation
system.mem_ctrls.bytesPerActivate::768-895           13      0.50%     91.82% # Bytes accessed per row activation
system.mem_ctrls.bytesPerActivate::896-1023           19      0.73%     92.55% # Bytes accessed per row activation
system.mem_ctrls.bytesPerActivate::1024-1151          194      7.45%    100.00% # Bytes accessed per row activation
system.mem_ctrls.bytesPerActivate::total         2605                       # Bytes accessed per row activation
system.mem_ctrls.rdPerTurnAround::samples          104                       # Reads before turning the bus around for writes
system.mem_ctrls.rdPerTurnAround::mean     161.740385                       # Reads before turning the bus around for writes
system.mem_ctrls.rdPerTurnAround::stdev   1602.653976                       # Reads before turning the bus around for writes
system.mem_ctrls.rdPerTurnAround::0-511           103     99.04%     99.04% # Reads before turning the bus around for writes
system.mem_ctrls.rdPerTurnAround::15872-16383            1      0.96%    100.00% # Reads before turning the bus around for writes
system.mem_ctrls.rdPerTurnAround::total           104                       # Reads before turning the bus around for writes
system.mem_ctrls.wrPerTurnAround::samples          104                       # Writes before turning the bus around for reads
system.mem_ctrls.wrPerTurnAround::mean      20.480769                       # Writes before turning the bus around for reads
system.mem_ctrls.wrPerTurnAround::gmean     20.390579                       # Writes before turning the bus around for reads
system.mem_ctrls.wrPerTurnAround::stdev      1.935768                       # Writes before turning the bus around for reads
system.mem_ctrls.wrPerTurnAround::16                6      5.77%      5.77% # Writes before turning the bus around for reads
system.mem_ctrls.wrPerTurnAround::18                1      0.96%      6.73% # Writes before turning the bus around for reads
system.mem_ctrls.wrPerTurnAround::19               26     25.00%     31.73% # Writes before turning the bus around for reads
system.mem_ctrls.wrPerTurnAround::20               11     10.58%     42.31% # Writes before turning the bus around for reads
system.mem_ctrls.wrPerTurnAround::21               39     37.50%     79.81% # Writes before turning the bus around for reads
system.mem_ctrls.wrPerTurnAround::22               11     10.58%     90.38% # Writes before turning the bus around for reads
system.mem_ctrls.wrPerTurnAround::23                7      6.73%     97.12% # Writes before turning the bus around for reads
system.mem_ctrls.wrPerTurnAround::25                1      0.96%     98.08% # Writes before turning the bus around for reads
system.mem_ctrls.wrPerTurnAround::27                1      0.96%     99.04% # Writes before turning the bus around for reads
system.mem_ctrls.wrPerTurnAround::28                1      0.96%    100.00% # Writes before turning the bus around for reads
system.mem_ctrls.wrPerTurnAround::total           104                       # Writes before turning the bus around for reads
system.mem_ctrls.totQLat                     59152997                       # Total ticks spent queuing
system.mem_ctrls.totMemAccLat               179527997                       # Total ticks spent from burst creation until serviced by the DRAM
system.mem_ctrls.totBusLat                   32100000                       # Total ticks spent in databus transfers
system.mem_ctrls.avgQLat                      9213.86                       # Average queueing delay per DRAM burst
system.mem_ctrls.avgBusLat                    5000.00                       # Average bus latency per DRAM burst
system.mem_ctrls.avgMemAccLat                27963.86                       # Average memory access latency per DRAM burst
system.mem_ctrls.avgRdBW                         0.89                       # Average DRAM read bandwidth in MiByte/s
system.mem_ctrls.avgWrBW                         0.30                       # Average achieved write bandwidth in MiByte/s
system.mem_ctrls.avgRdBWSys                      0.89                       # Average system read bandwidth in MiByte/s
system.mem_ctrls.avgWrBWSys                      0.30                       # Average system write bandwidth in MiByte/s
system.mem_ctrls.peakBW                      12800.00                       # Theoretical peak bandwidth in MiByte/s
system.mem_ctrls.busUtil                         0.01                       # Data bus utilization in percentage
system.mem_ctrls.busUtilRead                     0.01                       # Data bus utilization in percentage for reads
system.mem_ctrls.busUtilWrite                    0.00                       # Data bus utilization in percentage for writes
system.mem_ctrls.avgRdQLen                       1.00                       # Average read queue length when enqueuing
system.mem_ctrls.avgWrQLen                      30.97                       # Average write queue length when enqueuing
system.mem_ctrls.readRowHits                     3968                       # Number of row buffer hits during reads
system.mem_ctrls.writeRowHits                    1977                       # Number of row buffer hits during writes
system.mem_ctrls.readRowHitRate                 61.81                       # Row buffer hit rate for reads
system.mem_ctrls.writeRowHitRate                92.17                       # Row buffer hit rate for writes
system.mem_ctrls.avgGap                   53945042.03                       # Average gap between requests
system.mem_ctrls.pageHitRate                    69.41                       # Row buffer hit rate, read and write combined
system.mem_ctrls_0.actEnergy                 25688880                       # Energy for activate commands per rank (pJ)
system.mem_ctrls_0.preEnergy                 14016750                       # Energy for precharge commands per rank (pJ)
system.mem_ctrls_0.readEnergy                91759200                       # Energy for read commands per rank (pJ)
system.mem_ctrls_0.writeEnergy                3849120                       # Energy for write commands per rank (pJ)
system.mem_ctrls_0.refreshEnergy          30389511360                       # Energy for refresh commands per rank (pJ)
system.mem_ctrls_0.actBackEnergy          12437738865                       # Energy for active background per rank (pJ)
system.mem_ctrls_0.preBackEnergy         268254943500                       # Energy for precharge background per rank (pJ)
system.mem_ctrls_0.totalEnergy           311217507675                       # Total energy per rank (pJ)
system.mem_ctrls_0.averagePower            668.888806                       # Core power per rank (mW)
system.mem_ctrls_0.memoryStateTime::IDLE 445040875000                       # Time in different power states
system.mem_ctrls_0.memoryStateTime::REF   15428400000                       # Time in different power states
system.mem_ctrls_0.memoryStateTime::PRE_PDN            0                       # Time in different power states
system.mem_ctrls_0.memoryStateTime::ACT    1570189500                       # Time in different power states
system.mem_ctrls_0.memoryStateTime::ACT_PDN            0                       # Time in different power states
system.mem_ctrls_1.actEnergy                 23821560                       # Energy for activate commands per rank (pJ)
system.mem_ctrls_1.preEnergy                 12997875                       # Energy for precharge commands per rank (pJ)
system.mem_ctrls_1.readEnergy                76572600                       # Energy for read commands per rank (pJ)
system.mem_ctrls_1.writeEnergy                9953280                       # Energy for write commands per rank (pJ)
system.mem_ctrls_1.refreshEnergy          30389511360                       # Energy for refresh commands per rank (pJ)
system.mem_ctrls_1.actBackEnergy          12735662760                       # Energy for active background per rank (pJ)
system.mem_ctrls_1.preBackEnergy         267993606750                       # Energy for precharge background per rank (pJ)
system.mem_ctrls_1.totalEnergy           311242126185                       # Total energy per rank (pJ)
system.mem_ctrls_1.averagePower            668.941718                       # Core power per rank (mW)
system.mem_ctrls_1.memoryStateTime::IDLE 444546253000                       # Time in different power states
system.mem_ctrls_1.memoryStateTime::REF   15428400000                       # Time in different power states
system.mem_ctrls_1.memoryStateTime::PRE_PDN            0                       # Time in different power states
system.mem_ctrls_1.memoryStateTime::ACT    2061408250                       # Time in different power states
system.mem_ctrls_1.memoryStateTime::ACT_PDN            0                       # Time in different power states
system.cpu_voltage_domain.voltage                   1                       # Voltage in Volts
system.cpu_clk_domain.clock                       500                       # Clock period in ticks
system.cpu0.apic_clk_domain.clock                8000                       # Clock period in ticks
system.cpu0.numCycles                       922327152                       # number of cpu cycles simulated
system.cpu0.numWorkItemsStarted                     0                       # number of work items this cpu started
system.cpu0.numWorkItemsCompleted                   0                       # number of work items this cpu completed
system.cpu0.kern.inst.arm                           0                       # number of arm instructions executed
system.cpu0.kern.inst.quiesce                       0                       # number of quiesce instructions executed
system.cpu0.committedInsts                    1069783                       # Number of instructions committed
system.cpu0.committedOps                      2091982                       # Number of ops (including micro ops) committed
system.cpu0.num_int_alu_accesses              2059632                       # Number of integer alu accesses
system.cpu0.num_fp_alu_accesses                  1778                       # Number of float alu accesses
system.cpu0.num_func_calls                      46776                       # number of times a function call or return occured
system.cpu0.num_conditional_control_insts       164144                       # number of instructions that are conditional controls
system.cpu0.num_int_insts                     2059632                       # number of integer instructions
system.cpu0.num_fp_insts                         1778                       # number of float instructions
system.cpu0.num_int_register_reads            4193610                       # number of times the integer registers were read
system.cpu0.num_int_register_writes           1678181                       # number of times the integer registers were written
system.cpu0.num_fp_register_reads                2988                       # number of times the floating registers were read
system.cpu0.num_fp_register_writes               1416                       # number of times the floating registers were written
system.cpu0.num_cc_register_reads             1184577                       # number of times the CC registers were read
system.cpu0.num_cc_register_writes             693314                       # number of times the CC registers were written
system.cpu0.num_mem_refs                       479392                       # number of memory refs
system.cpu0.num_load_insts                     294739                       # Number of load instructions
system.cpu0.num_store_insts                    184653                       # Number of store instructions
system.cpu0.num_idle_cycles              917932358.076556                       # Number of idle cycles
system.cpu0.num_busy_cycles              4394793.923444                       # Number of busy cycles
system.cpu0.not_idle_fraction                0.004765                       # Percentage of non-idle cycles
system.cpu0.idle_fraction                    0.995235                       # Percentage of idle cycles
system.cpu0.Branches                           227881                       # Number of branches fetched
system.cpu0.op_class::No_OpClass                21065      1.01%      1.01% # Class of executed instruction
system.cpu0.op_class::IntAlu                  1581707     75.60%     76.61% # Class of executed instruction
system.cpu0.op_class::IntMult                    2501      0.12%     76.73% # Class of executed instruction
system.cpu0.op_class::IntDiv                     6064      0.29%     77.02% # Class of executed instruction
system.cpu0.op_class::FloatAdd                   1344      0.06%     77.09% # Class of executed instruction
system.cpu0.op_class::FloatCmp                      0      0.00%     77.09% # Class of executed instruction
system.cpu0.op_class::FloatCvt                      0      0.00%     77.09% # Class of executed instruction
system.cpu0.op_class::FloatMult                     0      0.00%     77.09% # Class of executed instruction
system.cpu0.op_class::FloatDiv                      0      0.00%     77.09% # Class of executed instruction
system.cpu0.op_class::FloatSqrt                     0      0.00%     77.09% # Class of executed instruction
system.cpu0.op_class::SimdAdd                       0      0.00%     77.09% # Class of executed instruction
system.cpu0.op_class::SimdAddAcc                    0      0.00%     77.09% # Class of executed instruction
system.cpu0.op_class::SimdAlu                       0      0.00%     77.09% # Class of executed instruction
system.cpu0.op_class::SimdCmp                       0      0.00%     77.09% # Class of executed instruction
system.cpu0.op_class::SimdCvt                       0      0.00%     77.09% # Class of executed instruction
system.cpu0.op_class::SimdMisc                      0      0.00%     77.09% # Class of executed instruction
system.cpu0.op_class::SimdMult                      0      0.00%     77.09% # Class of executed instruction
system.cpu0.op_class::SimdMultAcc                   0      0.00%     77.09% # Class of executed instruction
system.cpu0.op_class::SimdShift                     0      0.00%     77.09% # Class of executed instruction
system.cpu0.op_class::SimdShiftAcc                  0      0.00%     77.09% # Class of executed instruction
system.cpu0.op_class::SimdSqrt                      0      0.00%     77.09% # Class of executed instruction
system.cpu0.op_class::SimdFloatAdd                  0      0.00%     77.09% # Class of executed instruction
system.cpu0.op_class::SimdFloatAlu                  0      0.00%     77.09% # Class of executed instruction
system.cpu0.op_class::SimdFloatCmp                  0      0.00%     77.09% # Class of executed instruction
system.cpu0.op_class::SimdFloatCvt                  0      0.00%     77.09% # Class of executed instruction
system.cpu0.op_class::SimdFloatDiv                  0      0.00%     77.09% # Class of executed instruction
system.cpu0.op_class::SimdFloatMisc                 0      0.00%     77.09% # Class of executed instruction
system.cpu0.op_class::SimdFloatMult                 0      0.00%     77.09% # Class of executed instruction
system.cpu0.op_class::SimdFloatMultAcc              0      0.00%     77.09% # Class of executed instruction
system.cpu0.op_class::SimdFloatSqrt                 0      0.00%     77.09% # Class of executed instruction
system.cpu0.op_class::MemRead                  294739     14.09%     91.17% # Class of executed instruction
system.cpu0.op_class::MemWrite                 184653      8.83%    100.00% # Class of executed instruction
system.cpu0.op_class::IprAccess                     0      0.00%    100.00% # Class of executed instruction
system.cpu0.op_class::InstPrefetch                  0      0.00%    100.00% # Class of executed instruction
system.cpu0.op_class::total                   2092073                       # Class of executed instruction
system.cpu1.apic_clk_domain.clock                8000                       # Clock period in ticks
system.cpu1.numCycles                       925401379                       # number of cpu cycles simulated
system.cpu1.numWorkItemsStarted                     0                       # number of work items this cpu started
system.cpu1.numWorkItemsCompleted                   0                       # number of work items this cpu completed
system.cpu1.kern.inst.arm                           0                       # number of arm instructions executed
system.cpu1.kern.inst.quiesce                       0                       # number of quiesce instructions executed
system.cpu1.committedInsts                     399704                       # Number of instructions committed
system.cpu1.committedOps                       837344                       # Number of ops (including micro ops) committed
system.cpu1.num_int_alu_accesses               820624                       # Number of integer alu accesses
system.cpu1.num_fp_alu_accesses                   387                       # Number of float alu accesses
system.cpu1.num_func_calls                      22409                       # number of times a function call or return occured
system.cpu1.num_conditional_control_insts        60832                       # number of instructions that are conditional controls
system.cpu1.num_int_insts                      820624                       # number of integer instructions
system.cpu1.num_fp_insts                          387                       # number of float instructions
system.cpu1.num_int_register_reads            1659539                       # number of times the integer registers were read
system.cpu1.num_int_register_writes            673888                       # number of times the integer registers were written
system.cpu1.num_fp_register_reads                 622                       # number of times the floating registers were read
system.cpu1.num_fp_register_writes                354                       # number of times the floating registers were written
system.cpu1.num_cc_register_reads              470047                       # number of times the CC registers were read
system.cpu1.num_cc_register_writes             255594                       # number of times the CC registers were written
system.cpu1.num_mem_refs                       198127                       # number of memory refs
system.cpu1.num_load_insts                     122126                       # Number of load instructions
system.cpu1.num_store_insts                     76001                       # Number of store instructions
system.cpu1.num_idle_cycles              923635569.176183                       # Number of idle cycles
system.cpu1.num_busy_cycles              1765809.823817                       # Number of busy cycles
system.cpu1.not_idle_fraction                0.001908                       # Percentage of non-idle cycles
system.cpu1.idle_fraction                    0.998092                       # Percentage of idle cycles
system.cpu1.Branches                            90626                       # Number of branches fetched
system.cpu1.op_class::No_OpClass                12523      1.50%      1.50% # Class of executed instruction
system.cpu1.op_class::IntAlu                   620768     74.13%     75.63% # Class of executed instruction
system.cpu1.op_class::IntMult                    1629      0.19%     75.82% # Class of executed instruction
system.cpu1.op_class::IntDiv                     4081      0.49%     76.31% # Class of executed instruction
system.cpu1.op_class::FloatAdd                    239      0.03%     76.34% # Class of executed instruction
system.cpu1.op_class::FloatCmp                      0      0.00%     76.34% # Class of executed instruction
system.cpu1.op_class::FloatCvt                      0      0.00%     76.34% # Class of executed instruction
system.cpu1.op_class::FloatMult                     0      0.00%     76.34% # Class of executed instruction
system.cpu1.op_class::FloatDiv                      0      0.00%     76.34% # Class of executed instruction
system.cpu1.op_class::FloatSqrt                     0      0.00%     76.34% # Class of executed instruction
system.cpu1.op_class::SimdAdd                       0      0.00%     76.34% # Class of executed instruction
system.cpu1.op_class::SimdAddAcc                    0      0.00%     76.34% # Class of executed instruction
system.cpu1.op_class::SimdAlu                       0      0.00%     76.34% # Class of executed instruction
system.cpu1.op_class::SimdCmp                       0      0.00%     76.34% # Class of executed instruction
system.cpu1.op_class::SimdCvt                       0      0.00%     76.34% # Class of executed instruction
system.cpu1.op_class::SimdMisc                      0      0.00%     76.34% # Class of executed instruction
system.cpu1.op_class::SimdMult                      0      0.00%     76.34% # Class of executed instruction
system.cpu1.op_class::SimdMultAcc                   0      0.00%     76.34% # Class of executed instruction
system.cpu1.op_class::SimdShift                     0      0.00%     76.34% # Class of executed instruction
system.cpu1.op_class::SimdShiftAcc                  0      0.00%     76.34% # Class of executed instruction
system.cpu1.op_class::SimdSqrt                      0      0.00%     76.34% # Class of executed instruction
system.cpu1.op_class::SimdFloatAdd                  0      0.00%     76.34% # Class of executed instruction
system.cpu1.op_class::SimdFloatAlu                  0      0.00%     76.34% # Class of executed instruction
system.cpu1.op_class::SimdFloatCmp                  0      0.00%     76.34% # Class of executed instruction
system.cpu1.op_class::SimdFloatCvt                  0      0.00%     76.34% # Class of executed instruction
system.cpu1.op_class::SimdFloatDiv                  0      0.00%     76.34% # Class of executed instruction
system.cpu1.op_class::SimdFloatMisc                 0      0.00%     76.34% # Class of executed instruction
system.cpu1.op_class::SimdFloatMult                 0      0.00%     76.34% # Class of executed instruction
system.cpu1.op_class::SimdFloatMultAcc              0      0.00%     76.34% # Class of executed instruction
system.cpu1.op_class::SimdFloatSqrt                 0      0.00%     76.34% # Class of executed instruction
system.cpu1.op_class::MemRead                  122126     14.58%     90.92% # Class of executed instruction
system.cpu1.op_class::MemWrite                  76001      9.08%    100.00% # Class of executed instruction
system.cpu1.op_class::IprAccess                     0      0.00%    100.00% # Class of executed instruction
system.cpu1.op_class::InstPrefetch                  0      0.00%    100.00% # Class of executed instruction
system.cpu1.op_class::total                    837367                       # Class of executed instruction
system.cpu2.apic_clk_domain.clock                8000                       # Clock period in ticks
system.cpu2.numCycles                       925314829                       # number of cpu cycles simulated
system.cpu2.numWorkItemsStarted                     0                       # number of work items this cpu started
system.cpu2.numWorkItemsCompleted                   0                       # number of work items this cpu completed
system.cpu2.kern.inst.arm                           0                       # number of arm instructions executed
system.cpu2.kern.inst.quiesce                       0                       # number of quiesce instructions executed
system.cpu2.committedInsts                  265724416                       # Number of instructions committed
system.cpu2.committedOps                    479145256                       # Number of ops (including micro ops) committed
system.cpu2.num_int_alu_accesses            269517684                       # Number of integer alu accesses
system.cpu2.num_fp_alu_accesses             270602519                       # Number of float alu accesses
system.cpu2.num_func_calls                    9863626                       # number of times a function call or return occured
system.cpu2.num_conditional_control_insts     14996224                       # number of instructions that are conditional controls
system.cpu2.num_int_insts                   269517684                       # number of integer instructions
system.cpu2.num_fp_insts                    270602519                       # number of float instructions
system.cpu2.num_int_register_reads          512441732                       # number of times the integer registers were read
system.cpu2.num_int_register_writes         176026531                       # number of times the integer registers were written
system.cpu2.num_fp_register_reads           446698678                       # number of times the floating registers were read
system.cpu2.num_fp_register_writes          249457043                       # number of times the floating registers were written
system.cpu2.num_cc_register_reads           106883624                       # number of times the CC registers were read
system.cpu2.num_cc_register_writes           82955931                       # number of times the CC registers were written
system.cpu2.num_mem_refs                     84015189                       # number of memory refs
system.cpu2.num_load_insts                   62861654                       # Number of load instructions
system.cpu2.num_store_insts                  21153535                       # Number of store instructions
system.cpu2.num_idle_cycles              3535525.008202                       # Number of idle cycles
system.cpu2.num_busy_cycles              921779303.991798                       # Number of busy cycles
system.cpu2.not_idle_fraction                0.996179                       # Percentage of non-idle cycles
system.cpu2.idle_fraction                    0.003821                       # Percentage of idle cycles
system.cpu2.Branches                         27042935                       # Number of branches fetched
system.cpu2.op_class::No_OpClass                10637      0.00%      0.00% # Class of executed instruction
system.cpu2.op_class::IntAlu                244747456     51.08%     51.08% # Class of executed instruction
system.cpu2.op_class::IntMult                    2371      0.00%     51.08% # Class of executed instruction
system.cpu2.op_class::IntDiv                     1778      0.00%     51.08% # Class of executed instruction
system.cpu2.op_class::FloatAdd              150367922     31.38%     82.47% # Class of executed instruction
system.cpu2.op_class::FloatCmp                      0      0.00%     82.47% # Class of executed instruction
system.cpu2.op_class::FloatCvt                      0      0.00%     82.47% # Class of executed instruction
system.cpu2.op_class::FloatMult                     0      0.00%     82.47% # Class of executed instruction
system.cpu2.op_class::FloatDiv                      0      0.00%     82.47% # Class of executed instruction
system.cpu2.op_class::FloatSqrt                     0      0.00%     82.47% # Class of executed instruction
system.cpu2.op_class::SimdAdd                       0      0.00%     82.47% # Class of executed instruction
system.cpu2.op_class::SimdAddAcc                    0      0.00%     82.47% # Class of executed instruction
system.cpu2.op_class::SimdAlu                       0      0.00%     82.47% # Class of executed instruction
system.cpu2.op_class::SimdCmp                       0      0.00%     82.47% # Class of executed instruction
system.cpu2.op_class::SimdCvt                       0      0.00%     82.47% # Class of executed instruction
system.cpu2.op_class::SimdMisc                      0      0.00%     82.47% # Class of executed instruction
system.cpu2.op_class::SimdMult                      0      0.00%     82.47% # Class of executed instruction
system.cpu2.op_class::SimdMultAcc                   0      0.00%     82.47% # Class of executed instruction
system.cpu2.op_class::SimdShift                     0      0.00%     82.47% # Class of executed instruction
system.cpu2.op_class::SimdShiftAcc                  0      0.00%     82.47% # Class of executed instruction
system.cpu2.op_class::SimdSqrt                      0      0.00%     82.47% # Class of executed instruction
system.cpu2.op_class::SimdFloatAdd                  0      0.00%     82.47% # Class of executed instruction
system.cpu2.op_class::SimdFloatAlu                  0      0.00%     82.47% # Class of executed instruction
system.cpu2.op_class::SimdFloatCmp                  0      0.00%     82.47% # Class of executed instruction
system.cpu2.op_class::SimdFloatCvt                  0      0.00%     82.47% # Class of executed instruction
system.cpu2.op_class::SimdFloatDiv                  0      0.00%     82.47% # Class of executed instruction
system.cpu2.op_class::SimdFloatMisc                 0      0.00%     82.47% # Class of executed instruction
system.cpu2.op_class::SimdFloatMult                 0      0.00%     82.47% # Class of executed instruction
system.cpu2.op_class::SimdFloatMultAcc              0      0.00%     82.47% # Class of executed instruction
system.cpu2.op_class::SimdFloatSqrt                 0      0.00%     82.47% # Class of executed instruction
system.cpu2.op_class::MemRead                62861654     13.12%     95.59% # Class of executed instruction
system.cpu2.op_class::MemWrite               21153535      4.41%    100.00% # Class of executed instruction
system.cpu2.op_class::IprAccess                     0      0.00%    100.00% # Class of executed instruction
system.cpu2.op_class::InstPrefetch                  0      0.00%    100.00% # Class of executed instruction
system.cpu2.op_class::total                 479145353                       # Class of executed instruction
system.cpu3.apic_clk_domain.clock                8000                       # Clock period in ticks
system.cpu3.numCycles                       922587764                       # number of cpu cycles simulated
system.cpu3.numWorkItemsStarted                     0                       # number of work items this cpu started
system.cpu3.numWorkItemsCompleted                   0                       # number of work items this cpu completed
system.cpu3.kern.inst.arm                           0                       # number of arm instructions executed
system.cpu3.kern.inst.quiesce                       0                       # number of quiesce instructions executed
system.cpu3.committedInsts                     326631                       # Number of instructions committed
system.cpu3.committedOps                       694137                       # Number of ops (including micro ops) committed
system.cpu3.num_int_alu_accesses               681295                       # Number of integer alu accesses
system.cpu3.num_fp_alu_accesses                    33                       # Number of float alu accesses
system.cpu3.num_func_calls                      19451                       # number of times a function call or return occured
system.cpu3.num_conditional_control_insts        49265                       # number of instructions that are conditional controls
system.cpu3.num_int_insts                      681295                       # number of integer instructions
system.cpu3.num_fp_insts                           33                       # number of float instructions
system.cpu3.num_int_register_reads            1369340                       # number of times the integer registers were read
system.cpu3.num_int_register_writes            559731                       # number of times the integer registers were written
system.cpu3.num_fp_register_reads                  14                       # number of times the floating registers were read
system.cpu3.num_fp_register_writes                 25                       # number of times the floating registers were written
system.cpu3.num_cc_register_reads              382306                       # number of times the CC registers were read
system.cpu3.num_cc_register_writes             209561                       # number of times the CC registers were written
system.cpu3.num_mem_refs                       163689                       # number of memory refs
system.cpu3.num_load_insts                     101554                       # Number of load instructions
system.cpu3.num_store_insts                     62135                       # Number of store instructions
system.cpu3.num_idle_cycles              921102634.070443                       # Number of idle cycles
system.cpu3.num_busy_cycles              1485129.929557                       # Number of busy cycles
system.cpu3.not_idle_fraction                0.001610                       # Percentage of non-idle cycles
system.cpu3.idle_fraction                    0.998390                       # Percentage of idle cycles
system.cpu3.Branches                            74828                       # Number of branches fetched
system.cpu3.op_class::No_OpClass                 9639      1.39%      1.39% # Class of executed instruction
system.cpu3.op_class::IntAlu                   516182     74.36%     75.75% # Class of executed instruction
system.cpu3.op_class::IntMult                    1503      0.22%     75.97% # Class of executed instruction
system.cpu3.op_class::IntDiv                     3110      0.45%     76.42% # Class of executed instruction
system.cpu3.op_class::FloatAdd                     17      0.00%     76.42% # Class of executed instruction
system.cpu3.op_class::FloatCmp                      0      0.00%     76.42% # Class of executed instruction
system.cpu3.op_class::FloatCvt                      0      0.00%     76.42% # Class of executed instruction
system.cpu3.op_class::FloatMult                     0      0.00%     76.42% # Class of executed instruction
system.cpu3.op_class::FloatDiv                      0      0.00%     76.42% # Class of executed instruction
system.cpu3.op_class::FloatSqrt                     0      0.00%     76.42% # Class of executed instruction
system.cpu3.op_class::SimdAdd                       0      0.00%     76.42% # Class of executed instruction
system.cpu3.op_class::SimdAddAcc                    0      0.00%     76.42% # Class of executed instruction
system.cpu3.op_class::SimdAlu                       0      0.00%     76.42% # Class of executed instruction
system.cpu3.op_class::SimdCmp                       0      0.00%     76.42% # Class of executed instruction
system.cpu3.op_class::SimdCvt                       0      0.00%     76.42% # Class of executed instruction
system.cpu3.op_class::SimdMisc                      0      0.00%     76.42% # Class of executed instruction
system.cpu3.op_class::SimdMult                      0      0.00%     76.42% # Class of executed instruction
system.cpu3.op_class::SimdMultAcc                   0      0.00%     76.42% # Class of executed instruction
system.cpu3.op_class::SimdShift                     0      0.00%     76.42% # Class of executed instruction
system.cpu3.op_class::SimdShiftAcc                  0      0.00%     76.42% # Class of executed instruction
system.cpu3.op_class::SimdSqrt                      0      0.00%     76.42% # Class of executed instruction
system.cpu3.op_class::SimdFloatAdd                  0      0.00%     76.42% # Class of executed instruction
system.cpu3.op_class::SimdFloatAlu                  0      0.00%     76.42% # Class of executed instruction
system.cpu3.op_class::SimdFloatCmp                  0      0.00%     76.42% # Class of executed instruction
system.cpu3.op_class::SimdFloatCvt                  0      0.00%     76.42% # Class of executed instruction
system.cpu3.op_class::SimdFloatDiv                  0      0.00%     76.42% # Class of executed instruction
system.cpu3.op_class::SimdFloatMisc                 0      0.00%     76.42% # Class of executed instruction
system.cpu3.op_class::SimdFloatMult                 0      0.00%     76.42% # Class of executed instruction
system.cpu3.op_class::SimdFloatMultAcc              0      0.00%     76.42% # Class of executed instruction
system.cpu3.op_class::SimdFloatSqrt                 0      0.00%     76.42% # Class of executed instruction
system.cpu3.op_class::MemRead                  101554     14.63%     91.05% # Class of executed instruction
system.cpu3.op_class::MemWrite                  62135      8.95%    100.00% # Class of executed instruction
system.cpu3.op_class::IprAccess                     0      0.00%    100.00% # Class of executed instruction
system.cpu3.op_class::InstPrefetch                  0      0.00%    100.00% # Class of executed instruction
system.cpu3.op_class::total                    694140                       # Class of executed instruction
system.iobus.trans_dist::ReadReq                   96                       # Transaction distribution
system.iobus.trans_dist::ReadResp                  96                       # Transaction distribution
system.iobus.trans_dist::WriteReq                 556                       # Transaction distribution
system.iobus.trans_dist::WriteResp                556                       # Transaction distribution
system.iobus.trans_dist::MessageReq                16                       # Transaction distribution
system.iobus.trans_dist::MessageResp               16                       # Transaction distribution
system.iobus.pkt_count_system.pc.south_bridge.io_apic.int_master::system.ruby.l1_cntrl0.sequencer.pio-slave-port            2                       # Packet count per connected master and slave (bytes)
system.iobus.pkt_count_system.pc.south_bridge.io_apic.int_master::system.ruby.l1_cntrl1.sequencer.pio-slave-port            4                       # Packet count per connected master and slave (bytes)
system.iobus.pkt_count_system.pc.south_bridge.io_apic.int_master::system.ruby.l1_cntrl2.sequencer.pio-slave-port            2                       # Packet count per connected master and slave (bytes)
system.iobus.pkt_count_system.pc.south_bridge.io_apic.int_master::system.ruby.l1_cntrl3.sequencer.pio-slave-port            2                       # Packet count per connected master and slave (bytes)
system.iobus.pkt_count_system.pc.south_bridge.io_apic.int_master::total           10                       # Packet count per connected master and slave (bytes)
system.iobus.pkt_count_system.ruby.l1_cntrl0.sequencer.mem-master-port::system.pc.south_bridge.io_apic.pio            8                       # Packet count per connected master and slave (bytes)
system.iobus.pkt_count_system.ruby.l1_cntrl0.sequencer.mem-master-port::system.pc.com_1.pio            2                       # Packet count per connected master and slave (bytes)
system.iobus.pkt_count_system.ruby.l1_cntrl0.sequencer.mem-master-port::system.ruby.l1_cntrl0.sequencer.pio-slave-port          254                       # Packet count per connected master and slave (bytes)
system.iobus.pkt_count_system.ruby.l1_cntrl0.sequencer.mem-master-port::system.ruby.l1_cntrl1.sequencer.pio-slave-port            2                       # Packet count per connected master and slave (bytes)
system.iobus.pkt_count_system.ruby.l1_cntrl0.sequencer.mem-master-port::system.ruby.l1_cntrl2.sequencer.pio-slave-port            2                       # Packet count per connected master and slave (bytes)
system.iobus.pkt_count_system.ruby.l1_cntrl0.sequencer.mem-master-port::system.ruby.l1_cntrl3.sequencer.pio-slave-port            2                       # Packet count per connected master and slave (bytes)
system.iobus.pkt_count_system.ruby.l1_cntrl0.sequencer.mem-master-port::total          270                       # Packet count per connected master and slave (bytes)
system.iobus.pkt_count_system.ruby.l1_cntrl1.sequencer.mem-master-port::system.pc.south_bridge.ide.pio           46                       # Packet count per connected master and slave (bytes)
system.iobus.pkt_count_system.ruby.l1_cntrl1.sequencer.mem-master-port::system.pc.south_bridge.io_apic.pio            8                       # Packet count per connected master and slave (bytes)
system.iobus.pkt_count_system.ruby.l1_cntrl1.sequencer.mem-master-port::system.ruby.l1_cntrl1.sequencer.pio-slave-port          246                       # Packet count per connected master and slave (bytes)
system.iobus.pkt_count_system.ruby.l1_cntrl1.sequencer.mem-master-port::system.ruby.l1_cntrl2.sequencer.pio-slave-port            2                       # Packet count per connected master and slave (bytes)
system.iobus.pkt_count_system.ruby.l1_cntrl1.sequencer.mem-master-port::total          302                       # Packet count per connected master and slave (bytes)
system.iobus.pkt_count_system.ruby.l1_cntrl2.sequencer.mem-master-port::system.pc.south_bridge.ide.pio           12                       # Packet count per connected master and slave (bytes)
system.iobus.pkt_count_system.ruby.l1_cntrl2.sequencer.mem-master-port::system.ruby.l1_cntrl0.sequencer.pio-slave-port            2                       # Packet count per connected master and slave (bytes)
system.iobus.pkt_count_system.ruby.l1_cntrl2.sequencer.mem-master-port::system.ruby.l1_cntrl1.sequencer.pio-slave-port            4                       # Packet count per connected master and slave (bytes)
system.iobus.pkt_count_system.ruby.l1_cntrl2.sequencer.mem-master-port::system.ruby.l1_cntrl2.sequencer.pio-slave-port          266                       # Packet count per connected master and slave (bytes)
system.iobus.pkt_count_system.ruby.l1_cntrl2.sequencer.mem-master-port::system.ruby.l1_cntrl3.sequencer.pio-slave-port            6                       # Packet count per connected master and slave (bytes)
system.iobus.pkt_count_system.ruby.l1_cntrl2.sequencer.mem-master-port::total          290                       # Packet count per connected master and slave (bytes)
system.iobus.pkt_count_system.ruby.l1_cntrl3.sequencer.mem-master-port::system.pc.south_bridge.ide.pio           34                       # Packet count per connected master and slave (bytes)
system.iobus.pkt_count_system.ruby.l1_cntrl3.sequencer.mem-master-port::system.pc.south_bridge.io_apic.pio            6                       # Packet count per connected master and slave (bytes)
system.iobus.pkt_count_system.ruby.l1_cntrl3.sequencer.mem-master-port::system.pc.com_1.pio          174                       # Packet count per connected master and slave (bytes)
system.iobus.pkt_count_system.ruby.l1_cntrl3.sequencer.mem-master-port::system.ruby.l1_cntrl0.sequencer.pio-slave-port            2                       # Packet count per connected master and slave (bytes)
system.iobus.pkt_count_system.ruby.l1_cntrl3.sequencer.mem-master-port::system.ruby.l1_cntrl3.sequencer.pio-slave-port          248                       # Packet count per connected master and slave (bytes)
system.iobus.pkt_count_system.ruby.l1_cntrl3.sequencer.mem-master-port::total          464                       # Packet count per connected master and slave (bytes)
system.iobus.pkt_count::total                    1336                       # Packet count per connected master and slave (bytes)
system.iobus.pkt_size_system.pc.south_bridge.io_apic.int_master::system.ruby.l1_cntrl0.sequencer.pio-slave-port            4                       # Cumulative packet size per connected master and slave (bytes)
system.iobus.pkt_size_system.pc.south_bridge.io_apic.int_master::system.ruby.l1_cntrl1.sequencer.pio-slave-port            8                       # Cumulative packet size per connected master and slave (bytes)
system.iobus.pkt_size_system.pc.south_bridge.io_apic.int_master::system.ruby.l1_cntrl2.sequencer.pio-slave-port            4                       # Cumulative packet size per connected master and slave (bytes)
system.iobus.pkt_size_system.pc.south_bridge.io_apic.int_master::system.ruby.l1_cntrl3.sequencer.pio-slave-port            4                       # Cumulative packet size per connected master and slave (bytes)
system.iobus.pkt_size_system.pc.south_bridge.io_apic.int_master::total           20                       # Cumulative packet size per connected master and slave (bytes)
system.iobus.pkt_size_system.ruby.l1_cntrl0.sequencer.mem-master-port::system.pc.south_bridge.io_apic.pio           16                       # Cumulative packet size per connected master and slave (bytes)
system.iobus.pkt_size_system.ruby.l1_cntrl0.sequencer.mem-master-port::system.pc.com_1.pio            1                       # Cumulative packet size per connected master and slave (bytes)
system.iobus.pkt_size_system.ruby.l1_cntrl0.sequencer.mem-master-port::system.ruby.l1_cntrl0.sequencer.pio-slave-port          508                       # Cumulative packet size per connected master and slave (bytes)
system.iobus.pkt_size_system.ruby.l1_cntrl0.sequencer.mem-master-port::system.ruby.l1_cntrl1.sequencer.pio-slave-port            4                       # Cumulative packet size per connected master and slave (bytes)
system.iobus.pkt_size_system.ruby.l1_cntrl0.sequencer.mem-master-port::system.ruby.l1_cntrl2.sequencer.pio-slave-port            4                       # Cumulative packet size per connected master and slave (bytes)
system.iobus.pkt_size_system.ruby.l1_cntrl0.sequencer.mem-master-port::system.ruby.l1_cntrl3.sequencer.pio-slave-port            4                       # Cumulative packet size per connected master and slave (bytes)
system.iobus.pkt_size_system.ruby.l1_cntrl0.sequencer.mem-master-port::total          537                       # Cumulative packet size per connected master and slave (bytes)
system.iobus.pkt_size_system.ruby.l1_cntrl1.sequencer.mem-master-port::system.pc.south_bridge.ide.pio           26                       # Cumulative packet size per connected master and slave (bytes)
system.iobus.pkt_size_system.ruby.l1_cntrl1.sequencer.mem-master-port::system.pc.south_bridge.io_apic.pio           16                       # Cumulative packet size per connected master and slave (bytes)
system.iobus.pkt_size_system.ruby.l1_cntrl1.sequencer.mem-master-port::system.ruby.l1_cntrl1.sequencer.pio-slave-port          492                       # Cumulative packet size per connected master and slave (bytes)
system.iobus.pkt_size_system.ruby.l1_cntrl1.sequencer.mem-master-port::system.ruby.l1_cntrl2.sequencer.pio-slave-port            4                       # Cumulative packet size per connected master and slave (bytes)
system.iobus.pkt_size_system.ruby.l1_cntrl1.sequencer.mem-master-port::total          538                       # Cumulative packet size per connected master and slave (bytes)
system.iobus.pkt_size_system.ruby.l1_cntrl2.sequencer.mem-master-port::system.pc.south_bridge.ide.pio            6                       # Cumulative packet size per connected master and slave (bytes)
system.iobus.pkt_size_system.ruby.l1_cntrl2.sequencer.mem-master-port::system.ruby.l1_cntrl0.sequencer.pio-slave-port            4                       # Cumulative packet size per connected master and slave (bytes)
system.iobus.pkt_size_system.ruby.l1_cntrl2.sequencer.mem-master-port::system.ruby.l1_cntrl1.sequencer.pio-slave-port            8                       # Cumulative packet size per connected master and slave (bytes)
system.iobus.pkt_size_system.ruby.l1_cntrl2.sequencer.mem-master-port::system.ruby.l1_cntrl2.sequencer.pio-slave-port          532                       # Cumulative packet size per connected master and slave (bytes)
system.iobus.pkt_size_system.ruby.l1_cntrl2.sequencer.mem-master-port::system.ruby.l1_cntrl3.sequencer.pio-slave-port           12                       # Cumulative packet size per connected master and slave (bytes)
system.iobus.pkt_size_system.ruby.l1_cntrl2.sequencer.mem-master-port::total          562                       # Cumulative packet size per connected master and slave (bytes)
system.iobus.pkt_size_system.ruby.l1_cntrl3.sequencer.mem-master-port::system.pc.south_bridge.ide.pio           20                       # Cumulative packet size per connected master and slave (bytes)
system.iobus.pkt_size_system.ruby.l1_cntrl3.sequencer.mem-master-port::system.pc.south_bridge.io_apic.pio           12                       # Cumulative packet size per connected master and slave (bytes)
system.iobus.pkt_size_system.ruby.l1_cntrl3.sequencer.mem-master-port::system.pc.com_1.pio           87                       # Cumulative packet size per connected master and slave (bytes)
system.iobus.pkt_size_system.ruby.l1_cntrl3.sequencer.mem-master-port::system.ruby.l1_cntrl0.sequencer.pio-slave-port            4                       # Cumulative packet size per connected master and slave (bytes)
system.iobus.pkt_size_system.ruby.l1_cntrl3.sequencer.mem-master-port::system.ruby.l1_cntrl3.sequencer.pio-slave-port          496                       # Cumulative packet size per connected master and slave (bytes)
system.iobus.pkt_size_system.ruby.l1_cntrl3.sequencer.mem-master-port::total          619                       # Cumulative packet size per connected master and slave (bytes)
system.iobus.pkt_size::total                     2276                       # Cumulative packet size per connected master and slave (bytes)
system.iobus.reqLayer2.occupancy                84500                       # Layer occupancy (ticks)
system.iobus.reqLayer2.utilization                0.0                       # Layer utilization (%)
system.iobus.reqLayer8.occupancy                19997                       # Layer occupancy (ticks)
system.iobus.reqLayer8.utilization                0.0                       # Layer utilization (%)
system.iobus.reqLayer12.occupancy              112500                       # Layer occupancy (ticks)
system.iobus.reqLayer12.utilization               0.0                       # Layer utilization (%)
system.iobus.reqLayer17.occupancy              317498                       # Layer occupancy (ticks)
system.iobus.reqLayer17.utilization               0.0                       # Layer utilization (%)
system.iobus.reqLayer18.occupancy              314499                       # Layer occupancy (ticks)
system.iobus.reqLayer18.utilization               0.0                       # Layer utilization (%)
system.iobus.reqLayer19.occupancy              315496                       # Layer occupancy (ticks)
system.iobus.reqLayer19.utilization               0.0                       # Layer utilization (%)
system.iobus.reqLayer20.occupancy              317998                       # Layer occupancy (ticks)
system.iobus.reqLayer20.utilization               0.0                       # Layer utilization (%)
system.iobus.respLayer0.occupancy                7498                       # Layer occupancy (ticks)
system.iobus.respLayer0.utilization               0.0                       # Layer utilization (%)
system.iobus.respLayer2.occupancy              203500                       # Layer occupancy (ticks)
system.iobus.respLayer2.utilization               0.0                       # Layer utilization (%)
system.iobus.respLayer4.occupancy              223500                       # Layer occupancy (ticks)
system.iobus.respLayer4.utilization               0.0                       # Layer utilization (%)
system.iobus.respLayer6.occupancy              220500                       # Layer occupancy (ticks)
system.iobus.respLayer6.utilization               0.0                       # Layer utilization (%)
system.iobus.respLayer8.occupancy              365000                       # Layer occupancy (ticks)
system.iobus.respLayer8.utilization               0.0                       # Layer utilization (%)
system.pc.south_bridge.ide.disks.dma_read_full_pages            0                       # Number of full page size DMA reads (not PRD).
system.pc.south_bridge.ide.disks.dma_read_bytes            0                       # Number of bytes transfered via DMA reads (not PRD).
system.pc.south_bridge.ide.disks.dma_read_txs            0                       # Number of DMA read transactions (not PRD).
system.pc.south_bridge.ide.disks.dma_write_full_pages           33                       # Number of full page size DMA writes.
system.pc.south_bridge.ide.disks.dma_write_bytes       135168                       # Number of bytes transfered via DMA writes.
system.pc.south_bridge.ide.disks.dma_write_txs           33                       # Number of DMA write transactions.
system.ruby.clk_domain.clock                      500                       # Clock period in ticks
system.ruby.outstanding_req_hist_seqr::bucket_size            1                      
system.ruby.outstanding_req_hist_seqr::max_bucket            9                      
system.ruby.outstanding_req_hist_seqr::samples    462030292                      
system.ruby.outstanding_req_hist_seqr::mean     1.000000                      
system.ruby.outstanding_req_hist_seqr::gmean     1.000000                      
system.ruby.outstanding_req_hist_seqr::stdev     0.000660                      
system.ruby.outstanding_req_hist_seqr    |           0      0.00%      0.00% |   462030091    100.00%    100.00% |         201      0.00%    100.00% |           0      0.00%    100.00% |           0      0.00%    100.00% |           0      0.00%    100.00% |           0      0.00%    100.00% |           0      0.00%    100.00% |           0      0.00%    100.00% |           0      0.00%    100.00%
system.ruby.outstanding_req_hist_seqr::total    462030292                      
system.ruby.latency_hist_seqr::bucket_size          128                      
system.ruby.latency_hist_seqr::max_bucket         1279                      
system.ruby.latency_hist_seqr::samples      462030292                      
system.ruby.latency_hist_seqr::mean          1.008673                      
system.ruby.latency_hist_seqr::gmean         1.001591                      
system.ruby.latency_hist_seqr::stdev         0.561677                      
system.ruby.latency_hist_seqr            |   462029660    100.00%    100.00% |         548      0.00%    100.00% |          17      0.00%    100.00% |          16      0.00%    100.00% |          42      0.00%    100.00% |           9      0.00%    100.00% |           0      0.00%    100.00% |           0      0.00%    100.00% |           0      0.00%    100.00% |           0      0.00%    100.00%
system.ruby.latency_hist_seqr::total        462030292                      
system.ruby.hit_latency_hist_seqr::bucket_size            2                      
system.ruby.hit_latency_hist_seqr::max_bucket           19                      
system.ruby.hit_latency_hist_seqr::samples    462004826                      
system.ruby.hit_latency_hist_seqr::mean      1.005752                      
system.ruby.hit_latency_hist_seqr::gmean     1.001380                      
system.ruby.hit_latency_hist_seqr::stdev     0.239763                      
system.ruby.hit_latency_hist_seqr        |   461739083     99.94%     99.94% |           0      0.00%     99.94% |           0      0.00%     99.94% |           0      0.00%     99.94% |           0      0.00%     99.94% |      265743      0.06%    100.00% |           0      0.00%    100.00% |           0      0.00%    100.00% |           0      0.00%    100.00% |           0      0.00%    100.00%
system.ruby.hit_latency_hist_seqr::total    462004826                      
system.ruby.miss_latency_hist_seqr::bucket_size          128                      
system.ruby.miss_latency_hist_seqr::max_bucket         1279                      
system.ruby.miss_latency_hist_seqr::samples        25466                      
system.ruby.miss_latency_hist_seqr::mean    53.999254                      
system.ruby.miss_latency_hist_seqr::gmean    45.412973                      
system.ruby.miss_latency_hist_seqr::stdev    43.275646                      
system.ruby.miss_latency_hist_seqr       |       24834     97.52%     97.52% |         548      2.15%     99.67% |          17      0.07%     99.74% |          16      0.06%     99.80% |          42      0.16%     99.96% |           9      0.04%    100.00% |           0      0.00%    100.00% |           0      0.00%    100.00% |           0      0.00%    100.00% |           0      0.00%    100.00%
system.ruby.miss_latency_hist_seqr::total        25466                      
system.ruby.L1Cache.incomplete_times_seqr            9                      
system.ruby.dir_cntrl0.probeFilter.demand_hits            0                       # Number of cache demand hits
system.ruby.dir_cntrl0.probeFilter.demand_misses            0                       # Number of cache demand misses
[...]
system.ruby.L1Cache_Controller.S.Other_GETS::total        20632                      
system.ruby.L1Cache_Controller.O.Load    |       30290      2.31%      2.31% |        9444      0.72%      3.03% |     1269330     96.88%     99.92% |        1100      0.08%    100.00%
system.ruby.L1Cache_Controller.O.Load::total      1310164                      
system.ruby.L1Cache_Controller.O.Ifetch  |      995239     25.84%     25.84% |      188473      4.89%     30.73% |     2629999     68.27%     99.00% |       38436      1.00%    100.00%
system.ruby.L1Cache_Controller.O.Ifetch::total      3852147                      
system.ruby.L1Cache_Controller.O.Store   |         108     47.58%     47.58% |          25     11.01%     58.59% |          61     26.87%     85.46% |          33     14.54%    100.00%
system.ruby.L1Cache_Controller.O.Store::total          227                      
system.ruby.L1Cache_Controller.O.L2_Replacement |           2    100.00%    100.00% |           0      0.00%    100.00% |           0      0.00%    100.00% |           0      0.00%    100.00%
system.ruby.L1Cache_Controller.O.L2_Replacement::total            2                      
system.ruby.L1Cache_Controller.O.L1_to_L2 |       10271     33.88%     33.88% |        4749     15.66%     49.54% |       13727     45.28%     94.82% |        1569      5.18%    100.00%
system.ruby.L1Cache_Controller.O.L1_to_L2::total        30316                      
system.ruby.L1Cache_Controller.O.Trigger_L2_to_L1D |        1724     24.24%     24.24% |        1049     14.75%     39.00% |        4120     57.94%     96.93% |         218      3.07%    100.00%
system.ruby.L1Cache_Controller.O.Trigger_L2_to_L1D::total         7111                      
system.ruby.L1Cache_Controller.O.Trigger_L2_to_L1I |        8613     38.86%     38.86% |        3223     14.54%     53.40% |        9435     42.57%     95.97% |         893      4.03%    100.00%
system.ruby.L1Cache_Controller.O.Trigger_L2_to_L1I::total        22164                      
system.ruby.L1Cache_Controller.O.Other_GETX |        1602     31.52%     31.52% |        1529     30.08%     61.60% |         754     14.83%     76.43% |        1198     23.57%    100.00%
system.ruby.L1Cache_Controller.O.Other_GETX::total         5083                      
system.ruby.L1Cache_Controller.O.Other_GETS |        2593     17.47%     17.47% |        1995     13.44%     30.90% |        8618     58.05%     88.95% |        1640     11.05%    100.00%
system.ruby.L1Cache_Controller.O.Other_GETS::total        14846                      
system.ruby.L1Cache_Controller.M.Load    |      210140      0.87%      0.87% |       49945      0.21%      1.08% |    23751339     98.60%     99.68% |       76717      0.32%    100.00%
system.ruby.L1Cache_Controller.M.Load::total     24088141                      
system.ruby.L1Cache_Controller.M.Ifetch  |    16137268     10.30%     10.30% |       28773      0.02%     10.32% |   140349818     89.62%     99.94% |       96319      0.06%    100.00%
system.ruby.L1Cache_Controller.M.Ifetch::total    156612178                      
system.ruby.L1Cache_Controller.M.Store   |        3044     26.38%     26.38% |        2082     18.04%     44.42% |        1489     12.90%     57.32% |        4925     42.68%    100.00%
system.ruby.L1Cache_Controller.M.Store::total        11540                      
system.ruby.L1Cache_Controller.M.L2_Replacement |           1    100.00%    100.00% |           0      0.00%    100.00% |           0      0.00%    100.00% |           0      0.00%    100.00%
system.ruby.L1Cache_Controller.M.L2_Replacement::total            1                      
system.ruby.L1Cache_Controller.M.L1_to_L2 |       41469     18.28%     18.28% |        4005      1.77%     20.04% |      176637     77.85%     97.89% |        4790      2.11%    100.00%
system.ruby.L1Cache_Controller.M.L1_to_L2::total       226901                      
system.ruby.L1Cache_Controller.M.Trigger_L2_to_L1D |        3586      2.00%      2.00% |         912      0.51%      2.51% |      172872     96.62%     99.13% |        1549      0.87%    100.00%
system.ruby.L1Cache_Controller.M.Trigger_L2_to_L1D::total       178919                      
system.ruby.L1Cache_Controller.M.Trigger_L2_to_L1I |       32392     97.82%     97.82% |          94      0.28%     98.10% |         228      0.69%     98.79% |         400      1.21%    100.00%
system.ruby.L1Cache_Controller.M.Trigger_L2_to_L1I::total        33114                      
system.ruby.L1Cache_Controller.M.Other_GETX |         772     29.70%     29.70% |         366     14.08%     43.79% |         397     15.28%     59.06% |        1064     40.94%    100.00%
system.ruby.L1Cache_Controller.M.Other_GETX::total         2599                      
system.ruby.L1Cache_Controller.M.Other_GETS |        3834     31.65%     31.65% |        3158     26.07%     57.71% |        3109     25.66%     83.38% |        2014     16.62%    100.00%
system.ruby.L1Cache_Controller.M.Other_GETS::total        12115                      
system.ruby.L1Cache_Controller.M.Merged_GETS |           4     11.11%     11.11% |           5     13.89%     25.00% |          26     72.22%     97.22% |           1      2.78%    100.00%
system.ruby.L1Cache_Controller.M.Merged_GETS::total           36                      
system.ruby.L1Cache_Controller.MM.Load   |     3409017     11.96%     11.96% |      238576      0.84%     12.80% |    24390125     85.57%     98.37% |      464912      1.63%    100.00%
system.ruby.L1Cache_Controller.MM.Load::total     28502630                      
system.ruby.L1Cache_Controller.MM.Store  |     2787594     11.22%     11.22% |      271461      1.09%     12.32% |    21234999     85.50%     97.82% |      541258      2.18%    100.00%
system.ruby.L1Cache_Controller.MM.Store::total     24835312                      
system.ruby.L1Cache_Controller.MM.L2_Replacement |          28     77.78%     77.78% |           0      0.00%     77.78% |           0      0.00%     77.78% |           8     22.22%    100.00%
system.ruby.L1Cache_Controller.MM.L2_Replacement::total           36                      
system.ruby.L1Cache_Controller.MM.L1_to_L2 |       29154     27.60%     27.60% |       11455     10.85%     38.45% |       43912     41.58%     80.03% |       21095     19.97%    100.00%
system.ruby.L1Cache_Controller.MM.L1_to_L2::total       105616                      
system.ruby.L1Cache_Controller.MM.Trigger_L2_to_L1D |       16585     23.84%     23.84% |        4720      6.78%     30.62% |       39840     57.26%     87.88% |        8435     12.12%    100.00%
system.ruby.L1Cache_Controller.MM.Trigger_L2_to_L1D::total        69580                      
system.ruby.L1Cache_Controller.MM.Other_GETX |        4498     44.18%     44.18% |         928      9.11%     53.29% |        3542     34.79%     88.08% |        1214     11.92%    100.00%
system.ruby.L1Cache_Controller.MM.Other_GETX::total        10182                      
system.ruby.L1Cache_Controller.MM.Other_GETS |        6688     48.89%     48.89% |        1769     12.93%     61.82% |        2767     20.23%     82.05% |        2455     17.95%    100.00%
system.ruby.L1Cache_Controller.MM.Other_GETS::total        13679                      
system.ruby.L1Cache_Controller.MM.Merged_GETS |          33     34.38%     34.38% |           9      9.38%     43.75% |          51     53.12%     96.88% |           3      3.12%    100.00%
system.ruby.L1Cache_Controller.MM.Merged_GETS::total           96                      
system.ruby.L1Cache_Controller.SR.Load   |        5232     21.01%     21.01% |        2114      8.49%     29.51% |       11208     45.02%     74.52% |        6343     25.48%    100.00%
system.ruby.L1Cache_Controller.SR.Load::total        24897                      
system.ruby.L1Cache_Controller.SR.Ifetch |       46647     53.09%     53.09% |        9613     10.94%     64.03% |        7757      8.83%     72.85% |       23854     27.15%    100.00%
system.ruby.L1Cache_Controller.SR.Ifetch::total        87871                      
system.ruby.L1Cache_Controller.SR.Store  |         231     48.84%     48.84% |          56     11.84%     60.68% |          52     10.99%     71.67% |         134     28.33%    100.00%
system.ruby.L1Cache_Controller.SR.Store::total          473                      
system.ruby.L1Cache_Controller.OR.Load   |        1646     23.62%     23.62% |         994     14.26%     37.88% |        4114     59.02%     96.90% |         216      3.10%    100.00%
system.ruby.L1Cache_Controller.OR.Load::total         6970                      
system.ruby.L1Cache_Controller.OR.Ifetch |        8613     38.86%     38.86% |        3223     14.54%     53.40% |        9435     42.57%     95.97% |         893      4.03%    100.00%
system.ruby.L1Cache_Controller.OR.Ifetch::total        22164                      
system.ruby.L1Cache_Controller.OR.Store  |          78     55.32%     55.32% |          55     39.01%     94.33% |           6      4.26%     98.58% |           2      1.42%    100.00%
system.ruby.L1Cache_Controller.OR.Store::total          141                      
system.ruby.L1Cache_Controller.MR.Load   |        2582      1.46%      1.46% |         717      0.40%      1.86% |      172681     97.53%     99.39% |        1082      0.61%    100.00%
system.ruby.L1Cache_Controller.MR.Load::total       177062                      
system.ruby.L1Cache_Controller.MR.Ifetch |       32392     97.82%     97.82% |          94      0.28%     98.10% |         228      0.69%     98.79% |         400      1.21%    100.00%
system.ruby.L1Cache_Controller.MR.Ifetch::total        33114                      
system.ruby.L1Cache_Controller.MR.Store  |        1004     54.07%     54.07% |         195     10.50%     64.57% |         191     10.29%     74.85% |         467     25.15%    100.00%
system.ruby.L1Cache_Controller.MR.Store::total         1857                      
system.ruby.L1Cache_Controller.MMR.Load  |        8883     43.08%     43.08% |        1976      9.58%     52.66% |        4479     21.72%     74.38% |        5283     25.62%    100.00%
system.ruby.L1Cache_Controller.MMR.Load::total        20621                      
system.ruby.L1Cache_Controller.MMR.Store |        7702     15.73%     15.73% |        2744      5.60%     21.34% |       35361     72.23%     93.56% |        3152      6.44%    100.00%
system.ruby.L1Cache_Controller.MMR.Store::total        48959                      
system.ruby.L1Cache_Controller.IM.Ack    |       26518     50.22%     50.22% |        9439     17.88%     68.10% |        5549     10.51%     78.61% |       11295     21.39%    100.00%
system.ruby.L1Cache_Controller.IM.Ack::total        52801                      
system.ruby.L1Cache_Controller.IM.Data   |         389     29.09%     29.09% |         200     14.96%     44.05% |         111      8.30%     52.36% |         637     47.64%    100.00%
system.ruby.L1Cache_Controller.IM.Data::total         1337                      
system.ruby.L1Cache_Controller.IM.Exclusive_Data |       10042     39.11%     39.11% |        5583     21.74%     60.85% |        3326     12.95%     73.80% |        6728     26.20%    100.00%
system.ruby.L1Cache_Controller.IM.Exclusive_Data::total        25679                      
system.ruby.L1Cache_Controller.SM.Ack    |        1427     37.74%     37.74% |         455     12.03%     49.78% |         432     11.43%     61.20% |        1467     38.80%    100.00%
system.ruby.L1Cache_Controller.SM.Ack::total         3781                      
system.ruby.L1Cache_Controller.SM.Data   |        1276     34.06%     34.06% |         586     15.64%     49.71% |         515     13.75%     63.45% |        1369     36.55%    100.00%
system.ruby.L1Cache_Controller.SM.Data::total         3746                      
system.ruby.L1Cache_Controller.OM.Ack    |         558     50.54%     50.54% |         240     21.74%     72.28% |         201     18.21%     90.49% |         105      9.51%    100.00%
system.ruby.L1Cache_Controller.OM.Ack::total         1104                      
system.ruby.L1Cache_Controller.OM.All_acks_no_sharers |         186     50.54%     50.54% |          80     21.74%     72.28% |          67     18.21%     90.49% |          35      9.51%    100.00%
system.ruby.L1Cache_Controller.OM.All_acks_no_sharers::total          368                      
system.ruby.L1Cache_Controller.ISM.Ack   |        1313     26.24%     26.24% |         966     19.30%     45.54% |         740     14.79%     60.33% |        1985     39.67%    100.00%
system.ruby.L1Cache_Controller.ISM.Ack::total         5004                      
system.ruby.L1Cache_Controller.ISM.All_acks_no_sharers |        1665     32.76%     32.76% |         786     15.46%     48.22% |         626     12.32%     60.54% |        2006     39.46%    100.00%
system.ruby.L1Cache_Controller.ISM.All_acks_no_sharers::total         5083                      
system.ruby.L1Cache_Controller.M_W.Load  |          57     26.03%     26.03% |          44     20.09%     46.12% |          47     21.46%     67.58% |          71     32.42%    100.00%
system.ruby.L1Cache_Controller.M_W.Load::total          219                      
system.ruby.L1Cache_Controller.M_W.Store |          28     50.91%     50.91% |          10     18.18%     69.09% |           8     14.55%     83.64% |           9     16.36%    100.00%
system.ruby.L1Cache_Controller.M_W.Store::total           55                      
system.ruby.L1Cache_Controller.M_W.Ack   |        3104     20.76%     20.76% |        4420     29.56%     50.32% |        3229     21.60%     71.92% |        4198     28.08%    100.00%
system.ruby.L1Cache_Controller.M_W.Ack::total        14951                      
system.ruby.L1Cache_Controller.M_W.All_acks_no_sharers |       10548     32.27%     32.27% |        6355     19.44%     51.71% |        6007     18.38%     70.09% |        9775     29.91%    100.00%
system.ruby.L1Cache_Controller.M_W.All_acks_no_sharers::total        32685                      
system.ruby.L1Cache_Controller.MM_W.Store |         675     18.14%     18.14% |        1258     33.81%     51.95% |         664     17.84%     69.79% |        1124     30.21%    100.00%
system.ruby.L1Cache_Controller.MM_W.Store::total         3721                      
system.ruby.L1Cache_Controller.MM_W.Ack  |        2078     16.04%     16.04% |        3706     28.61%     44.65% |        2447     18.89%     63.54% |        4724     36.46%    100.00%
system.ruby.L1Cache_Controller.MM_W.Ack::total        12955                      
system.ruby.L1Cache_Controller.MM_W.All_acks_no_sharers |       10070     39.13%     39.13% |        5593     21.73%     60.87% |        3334     12.96%     73.82% |        6737     26.18%    100.00%
system.ruby.L1Cache_Controller.MM_W.All_acks_no_sharers::total        25734                      
system.ruby.L1Cache_Controller.IS.Other_GETS |           0      0.00%      0.00% |           2    100.00%    100.00% |           0      0.00%    100.00% |           0      0.00%    100.00%
system.ruby.L1Cache_Controller.IS.Other_GETS::total            2                      
system.ruby.L1Cache_Controller.IS.Ack    |       28841     33.29%     33.29% |       14214     16.41%     49.70% |       15403     17.78%     67.49% |       28165     32.51%    100.00%
system.ruby.L1Cache_Controller.IS.Ack::total        86623                      
system.ruby.L1Cache_Controller.IS.Shared_Ack |        1332     13.02%     13.02% |        3692     36.08%     49.10% |         742      7.25%     56.35% |        4466     43.65%    100.00%
system.ruby.L1Cache_Controller.IS.Shared_Ack::total        10232                      
system.ruby.L1Cache_Controller.IS.Data   |           0      0.00%      0.00% |           1    100.00%    100.00% |           0      0.00%    100.00% |           0      0.00%    100.00%
system.ruby.L1Cache_Controller.IS.Data::total            1                      
system.ruby.L1Cache_Controller.IS.Shared_Data |        5535     20.43%     20.43% |        7854     28.99%     49.42% |        4100     15.13%     64.55% |        9606     35.45%    100.00%
system.ruby.L1Cache_Controller.IS.Shared_Data::total        27095                      
system.ruby.L1Cache_Controller.IS.Exclusive_Data |       10576     32.30%     32.30% |        6365     19.44%     51.74% |        6015     18.37%     70.12% |        9784     29.88%    100.00%
system.ruby.L1Cache_Controller.IS.Exclusive_Data::total        32740                      
system.ruby.L1Cache_Controller.SS.Load   |          38     10.08%     10.08% |          65     17.24%     27.32% |         117     31.03%     58.36% |         157     41.64%    100.00%
system.ruby.L1Cache_Controller.SS.Load::total          377                      
system.ruby.L1Cache_Controller.SS.Ifetch |        1345     16.75%     16.75% |        2826     35.20%     51.95% |         971     12.09%     64.04% |        2887     35.96%    100.00%
system.ruby.L1Cache_Controller.SS.Ifetch::total         8029                      
system.ruby.L1Cache_Controller.SS.Store  |           1      7.69%      7.69% |           0      0.00%      7.69% |          10     76.92%     84.62% |           2     15.38%    100.00%
system.ruby.L1Cache_Controller.SS.Store::total           13                      
system.ruby.L1Cache_Controller.SS.Ack    |        4340     26.77%     26.77% |        3722     22.96%     49.73% |        3353     20.68%     70.41% |        4797     29.59%    100.00%
system.ruby.L1Cache_Controller.SS.Ack::total        16212                      
system.ruby.L1Cache_Controller.SS.Shared_Ack |        1474     14.17%     14.17% |        4573     43.97%     58.14% |         850      8.17%     66.32% |        3503     33.68%    100.00%
system.ruby.L1Cache_Controller.SS.Shared_Ack::total        10400                      
system.ruby.L1Cache_Controller.SS.All_acks |        5535     20.43%     20.43% |        7855     28.99%     49.42% |        4100     15.13%     64.55% |        9606     35.45%    100.00%
system.ruby.L1Cache_Controller.SS.All_acks::total        27096                      
system.ruby.L1Cache_Controller.OI.Writeback_Ack |           2    100.00%    100.00% |           0      0.00%    100.00% |           0      0.00%    100.00% |           0      0.00%    100.00%
system.ruby.L1Cache_Controller.OI.Writeback_Ack::total            2                      
system.ruby.L1Cache_Controller.MI.Writeback_Ack |          29     78.38%     78.38% |           0      0.00%     78.38% |           0      0.00%     78.38% |           8     21.62%    100.00%
system.ruby.L1Cache_Controller.MI.Writeback_Ack::total           37                      
system.ruby.L1Cache_Controller.ST.Complete_L2_to_L1 |       52110     46.02%     46.02% |       11783     10.41%     56.42% |       19017     16.79%     73.22% |       30331     26.78%    100.00%
system.ruby.L1Cache_Controller.ST.Complete_L2_to_L1::total       113241                      
system.ruby.L1Cache_Controller.OT.Complete_L2_to_L1 |       10337     35.31%     35.31% |        4272     14.59%     49.90% |       13555     46.30%     96.20% |        1111      3.80%    100.00%
system.ruby.L1Cache_Controller.OT.Complete_L2_to_L1::total        29275                      
system.ruby.L1Cache_Controller.MT.Complete_L2_to_L1 |       35978     16.97%     16.97% |        1006      0.47%     17.44% |      173100     81.64%     99.08% |        1949      0.92%    100.00%
system.ruby.L1Cache_Controller.MT.Complete_L2_to_L1::total       212033                      
system.ruby.L1Cache_Controller.MMT.Complete_L2_to_L1 |       16585     23.84%     23.84% |        4720      6.78%     30.62% |       39840     57.26%     87.88% |        8435     12.12%    100.00%
system.ruby.L1Cache_Controller.MMT.Complete_L2_to_L1::total        69580                      

---------- End Simulation Statistics   ----------
