
---------- Begin Simulation Statistics ----------
sim_seconds                                  1.952747                       # Number of seconds simulated
sim_ticks                                1952746679500                       # Number of ticks simulated
final_tick                               54293058822001                       # Number of ticks from beginning of simulation (restored from checkpoints and never reset)
sim_freq                                 1000000000000                       # Frequency of simulated ticks
host_inst_rate                                  99099                       # Simulator instruction rate (inst/s)
host_op_rate                                   147710                       # Simulator op (including micro ops) rate (op/s)
host_tick_rate                              266765345                       # Simulator tick rate (ticks/s)
host_mem_usage                                1805376                       # Number of bytes of host memory used
host_seconds                                  7320.09                       # Real time elapsed on the host
sim_insts                                   725414726                       # Number of instructions simulated
sim_ops                                    1081250206                       # Number of ops (including micro ops) simulated
system.voltage_domain.voltage                       1                       # Voltage in Volts
system.clk_domain.clock                          1000                       # Clock period in ticks
system.mem_ctrls.bytes_read::ruby.dir_cntrl0    477498048                       # Number of bytes read from this memory
system.mem_ctrls.bytes_read::total          477498048                       # Number of bytes read from this memory
system.mem_ctrls.bytes_written::ruby.dir_cntrl0    269217280                       # Number of bytes written to this memory
system.mem_ctrls.bytes_written::total       269217280                       # Number of bytes written to this memory
system.mem_ctrls.num_reads::ruby.dir_cntrl0      7460907                       # Number of read requests responded to by this memory
system.mem_ctrls.num_reads::total             7460907                       # Number of read requests responded to by this memory
system.mem_ctrls.num_writes::ruby.dir_cntrl0      4206520                       # Number of write requests responded to by this memory
system.mem_ctrls.num_writes::total            4206520                       # Number of write requests responded to by this memory
system.mem_ctrls.bw_read::ruby.dir_cntrl0    244526365                       # Total read bandwidth from this memory (bytes/s)
system.mem_ctrls.bw_read::total             244526365                       # Total read bandwidth from this memory (bytes/s)
system.mem_ctrls.bw_write::ruby.dir_cntrl0    137865952                       # Write bandwidth from this memory (bytes/s)
system.mem_ctrls.bw_write::total            137865952                       # Write bandwidth from this memory (bytes/s)
system.mem_ctrls.bw_total::ruby.dir_cntrl0    382392317                       # Total bandwidth to/from this memory (bytes/s)
system.mem_ctrls.bw_total::total            382392317                       # Total bandwidth to/from this memory (bytes/s)
system.mem_ctrls.readReqs                     7460907                       # Number of read requests accepted
system.mem_ctrls.writeReqs                    4206520                       # Number of write requests accepted
system.mem_ctrls.readBursts                   7460907                       # Number of DRAM read bursts, including those serviced by the write queue
system.mem_ctrls.writeBursts                  4206520                       # Number of DRAM write bursts, including those merged in the write queue
system.mem_ctrls.bytesReadDRAM              475038464                       # Total number of bytes read from DRAM
system.mem_ctrls.bytesReadWrQ                 2459584                       # Total number of bytes read from write queue
system.mem_ctrls.bytesWritten               269181056                       # Total number of bytes written to DRAM
system.mem_ctrls.bytesReadSys               477498048                       # Total read bytes from the system interface side
system.mem_ctrls.bytesWrittenSys            269217280                       # Total written bytes from the system interface side
system.mem_ctrls.servicedByWrQ                  38431                       # Number of DRAM read bursts serviced by the write queue
system.mem_ctrls.mergedWrBursts                   556                       # Number of DRAM write bursts merged with an existing one
system.mem_ctrls.neitherReadNorWriteReqs            0                       # Number of requests that are neither read nor write
system.mem_ctrls.perBankRdBursts::0            461112                       # Per bank write bursts
system.mem_ctrls.perBankRdBursts::1            455547                       # Per bank write bursts
system.mem_ctrls.perBankRdBursts::2            458565                       # Per bank write bursts
system.mem_ctrls.perBankRdBursts::3            440545                       # Per bank write bursts
system.mem_ctrls.perBankRdBursts::4            472337                       # Per bank write bursts
system.mem_ctrls.perBankRdBursts::5            466215                       # Per bank write bursts
system.mem_ctrls.perBankRdBursts::6            515874                       # Per bank write bursts
system.mem_ctrls.perBankRdBursts::7            507125                       # Per bank write bursts
system.mem_ctrls.perBankRdBursts::8            505963                       # Per bank write bursts
system.mem_ctrls.perBankRdBursts::9            471170                       # Per bank write bursts
system.mem_ctrls.perBankRdBursts::10           429759                       # Per bank write bursts
system.mem_ctrls.perBankRdBursts::11           438546                       # Per bank write bursts
system.mem_ctrls.perBankRdBursts::12           452788                       # Per bank write bursts
system.mem_ctrls.perBankRdBursts::13           429130                       # Per bank write bursts
system.mem_ctrls.perBankRdBursts::14           432865                       # Per bank write bursts
system.mem_ctrls.perBankRdBursts::15           484935                       # Per bank write bursts
system.mem_ctrls.perBankWrBursts::0            251550                       # Per bank write bursts
system.mem_ctrls.perBankWrBursts::1            255261                       # Per bank write bursts
system.mem_ctrls.perBankWrBursts::2            259803                       # Per bank write bursts
system.mem_ctrls.perBankWrBursts::3            239512                       # Per bank write bursts
system.mem_ctrls.perBankWrBursts::4            265739                       # Per bank write bursts
system.mem_ctrls.perBankWrBursts::5            266478                       # Per bank write bursts
system.mem_ctrls.perBankWrBursts::6            312264                       # Per bank write bursts
system.mem_ctrls.perBankWrBursts::7            308897                       # Per bank write bursts
system.mem_ctrls.perBankWrBursts::8            308201                       # Per bank write bursts
system.mem_ctrls.perBankWrBursts::9            273589                       # Per bank write bursts
system.mem_ctrls.perBankWrBursts::10           232752                       # Per bank write bursts
system.mem_ctrls.perBankWrBursts::11           239794                       # Per bank write bursts
system.mem_ctrls.perBankWrBursts::12           255036                       # Per bank write bursts
system.mem_ctrls.perBankWrBursts::13           228966                       # Per bank write bursts
system.mem_ctrls.perBankWrBursts::14           230758                       # Per bank write bursts
system.mem_ctrls.perBankWrBursts::15           277354                       # Per bank write bursts
system.mem_ctrls.numRdRetry                         0                       # Number of times read queue was full causing retry
system.mem_ctrls.numWrRetry                         0                       # Number of times write queue was full causing retry
system.mem_ctrls.totGap                  1952746840000                       # Total gap between requests
system.mem_ctrls.readPktSize::0                     0                       # Read request sizes (log2)
system.mem_ctrls.readPktSize::1                     0                       # Read request sizes (log2)
system.mem_ctrls.readPktSize::2                     0                       # Read request sizes (log2)
system.mem_ctrls.readPktSize::3                     0                       # Read request sizes (log2)
system.mem_ctrls.readPktSize::4                     0                       # Read request sizes (log2)
system.mem_ctrls.readPktSize::5                     0                       # Read request sizes (log2)
system.mem_ctrls.readPktSize::6               7460907                       # Read request sizes (log2)
system.mem_ctrls.writePktSize::0                    0                       # Write request sizes (log2)
system.mem_ctrls.writePktSize::1                    0                       # Write request sizes (log2)
system.mem_ctrls.writePktSize::2                    0                       # Write request sizes (log2)
system.mem_ctrls.writePktSize::3                    0                       # Write request sizes (log2)
system.mem_ctrls.writePktSize::4                    0                       # Write request sizes (log2)
system.mem_ctrls.writePktSize::5                    0                       # Write request sizes (log2)
system.mem_ctrls.writePktSize::6              4206520                       # Write request sizes (log2)
system.mem_ctrls.rdQLenPdf::0                 7385470                       # What read queue length does an incoming req see
system.mem_ctrls.rdQLenPdf::1                   37006                       # What read queue length does an incoming req see
system.mem_ctrls.rdQLenPdf::2                       0                       # What read queue length does an incoming req see
system.mem_ctrls.rdQLenPdf::3                       0                       # What read queue length does an incoming req see
system.mem_ctrls.rdQLenPdf::4                       0                       # What read queue length does an incoming req see
system.mem_ctrls.rdQLenPdf::5                       0                       # What read queue length does an incoming req see
system.mem_ctrls.rdQLenPdf::6                       0                       # What read queue length does an incoming req see
system.mem_ctrls.rdQLenPdf::7                       0                       # What read queue length does an incoming req see
system.mem_ctrls.rdQLenPdf::8                       0                       # What read queue length does an incoming req see
system.mem_ctrls.rdQLenPdf::9                       0                       # What read queue length does an incoming req see
system.mem_ctrls.rdQLenPdf::10                      0                       # What read queue length does an incoming req see
system.mem_ctrls.rdQLenPdf::11                      0                       # What read queue length does an incoming req see
system.mem_ctrls.rdQLenPdf::12                      0                       # What read queue length does an incoming req see
system.mem_ctrls.rdQLenPdf::13                      0                       # What read queue length does an incoming req see
system.mem_ctrls.rdQLenPdf::14                      0                       # What read queue length does an incoming req see
system.mem_ctrls.rdQLenPdf::15                      0                       # What read queue length does an incoming req see
system.mem_ctrls.rdQLenPdf::16                      0                       # What read queue length does an incoming req see
system.mem_ctrls.rdQLenPdf::17                      0                       # What read queue length does an incoming req see
system.mem_ctrls.rdQLenPdf::18                      0                       # What read queue length does an incoming req see
system.mem_ctrls.rdQLenPdf::19                      0                       # What read queue length does an incoming req see
system.mem_ctrls.rdQLenPdf::20                      0                       # What read queue length does an incoming req see
system.mem_ctrls.rdQLenPdf::21                      0                       # What read queue length does an incoming req see
system.mem_ctrls.rdQLenPdf::22                      0                       # What read queue length does an incoming req see
system.mem_ctrls.rdQLenPdf::23                      0                       # What read queue length does an incoming req see
system.mem_ctrls.rdQLenPdf::24                      0                       # What read queue length does an incoming req see
system.mem_ctrls.rdQLenPdf::25                      0                       # What read queue length does an incoming req see
system.mem_ctrls.rdQLenPdf::26                      0                       # What read queue length does an incoming req see
system.mem_ctrls.rdQLenPdf::27                      0                       # What read queue length does an incoming req see
system.mem_ctrls.rdQLenPdf::28                      0                       # What read queue length does an incoming req see
system.mem_ctrls.rdQLenPdf::29                      0                       # What read queue length does an incoming req see
system.mem_ctrls.rdQLenPdf::30                      0                       # What read queue length does an incoming req see
system.mem_ctrls.rdQLenPdf::31                      0                       # What read queue length does an incoming req see
system.mem_ctrls.wrQLenPdf::0                       0                       # What write queue length does an incoming req see
system.mem_ctrls.wrQLenPdf::1                       0                       # What write queue length does an incoming req see
system.mem_ctrls.wrQLenPdf::2                       0                       # What write queue length does an incoming req see
system.mem_ctrls.wrQLenPdf::3                       0                       # What write queue length does an incoming req see
system.mem_ctrls.wrQLenPdf::4                       0                       # What write queue length does an incoming req see
system.mem_ctrls.wrQLenPdf::5                       0                       # What write queue length does an incoming req see
system.mem_ctrls.wrQLenPdf::6                       0                       # What write queue length does an incoming req see
system.mem_ctrls.wrQLenPdf::7                       0                       # What write queue length does an incoming req see
system.mem_ctrls.wrQLenPdf::8                       0                       # What write queue length does an incoming req see
system.mem_ctrls.wrQLenPdf::9                       0                       # What write queue length does an incoming req see
system.mem_ctrls.wrQLenPdf::10                      0                       # What write queue length does an incoming req see
system.mem_ctrls.wrQLenPdf::11                      0                       # What write queue length does an incoming req see
system.mem_ctrls.wrQLenPdf::12                      0                       # What write queue length does an incoming req see
system.mem_ctrls.wrQLenPdf::13                      0                       # What write queue length does an incoming req see
system.mem_ctrls.wrQLenPdf::14                      0                       # What write queue length does an incoming req see
system.mem_ctrls.wrQLenPdf::15                   3023                       # What write queue length does an incoming req see
system.mem_ctrls.wrQLenPdf::16                   3983                       # What write queue length does an incoming req see
system.mem_ctrls.wrQLenPdf::17                 256762                       # What write queue length does an incoming req see
system.mem_ctrls.wrQLenPdf::18                 262978                       # What write queue length does an incoming req see
system.mem_ctrls.wrQLenPdf::19                 263113                       # What write queue length does an incoming req see
system.mem_ctrls.wrQLenPdf::20                 263137                       # What write queue length does an incoming req see
system.mem_ctrls.wrQLenPdf::21                 263174                       # What write queue length does an incoming req see
system.mem_ctrls.wrQLenPdf::22                 262966                       # What write queue length does an incoming req see
system.mem_ctrls.wrQLenPdf::23                 262903                       # What write queue length does an incoming req see
system.mem_ctrls.wrQLenPdf::24                 262798                       # What write queue length does an incoming req see
system.mem_ctrls.wrQLenPdf::25                 262773                       # What write queue length does an incoming req see
system.mem_ctrls.wrQLenPdf::26                 262715                       # What write queue length does an incoming req see
system.mem_ctrls.wrQLenPdf::27                 262668                       # What write queue length does an incoming req see
system.mem_ctrls.wrQLenPdf::28                 262638                       # What write queue length does an incoming req see
system.mem_ctrls.wrQLenPdf::29                 262624                       # What write queue length does an incoming req see
system.mem_ctrls.wrQLenPdf::30                 262615                       # What write queue length does an incoming req see
system.mem_ctrls.wrQLenPdf::31                 262565                       # What write queue length does an incoming req see
system.mem_ctrls.wrQLenPdf::32                 262461                       # What write queue length does an incoming req see
system.mem_ctrls.wrQLenPdf::33                     68                       # What write queue length does an incoming req see
system.mem_ctrls.wrQLenPdf::34                      0                       # What write queue length does an incoming req see
system.mem_ctrls.wrQLenPdf::35                      0                       # What write queue length does an incoming req see
system.mem_ctrls.wrQLenPdf::36                      0                       # What write queue length does an incoming req see
system.mem_ctrls.wrQLenPdf::37                      0                       # What write queue length does an incoming req see
system.mem_ctrls.wrQLenPdf::38                      0                       # What write queue length does an incoming req see
system.mem_ctrls.wrQLenPdf::39                      0                       # What write queue length does an incoming req see
system.mem_ctrls.wrQLenPdf::40                      0                       # What write queue length does an incoming req see
system.mem_ctrls.wrQLenPdf::41                      0                       # What write queue length does an incoming req see
system.mem_ctrls.wrQLenPdf::42                      0                       # What write queue length does an incoming req see
system.mem_ctrls.wrQLenPdf::43                      0                       # What write queue length does an incoming req see
system.mem_ctrls.wrQLenPdf::44                      0                       # What write queue length does an incoming req see
system.mem_ctrls.wrQLenPdf::45                      0                       # What write queue length does an incoming req see
system.mem_ctrls.wrQLenPdf::46                      0                       # What write queue length does an incoming req see
system.mem_ctrls.wrQLenPdf::47                      0                       # What write queue length does an incoming req see
system.mem_ctrls.wrQLenPdf::48                      0                       # What write queue length does an incoming req see
system.mem_ctrls.wrQLenPdf::49                      0                       # What write queue length does an incoming req see
system.mem_ctrls.wrQLenPdf::50                      0                       # What write queue length does an incoming req see
system.mem_ctrls.wrQLenPdf::51                      0                       # What write queue length does an incoming req see
system.mem_ctrls.wrQLenPdf::52                      0                       # What write queue length does an incoming req see
system.mem_ctrls.wrQLenPdf::53                      0                       # What write queue length does an incoming req see
system.mem_ctrls.wrQLenPdf::54                      0                       # What write queue length does an incoming req see
system.mem_ctrls.wrQLenPdf::55                      0                       # What write queue length does an incoming req see
system.mem_ctrls.wrQLenPdf::56                      0                       # What write queue length does an incoming req see
system.mem_ctrls.wrQLenPdf::57                      0                       # What write queue length does an incoming req see
system.mem_ctrls.wrQLenPdf::58                      0                       # What write queue length does an incoming req see
system.mem_ctrls.wrQLenPdf::59                      0                       # What write queue length does an incoming req see
system.mem_ctrls.wrQLenPdf::60                      0                       # What write queue length does an incoming req see
system.mem_ctrls.wrQLenPdf::61                      0                       # What write queue length does an incoming req see
system.mem_ctrls.wrQLenPdf::62                      0                       # What write queue length does an incoming req see
system.mem_ctrls.wrQLenPdf::63                      0                       # What write queue length does an incoming req see
system.mem_ctrls.bytesPerActivate::samples      6963994                       # Bytes accessed per row activation
system.mem_ctrls.bytesPerActivate::mean    106.866766                       # Bytes accessed per row activation
system.mem_ctrls.bytesPerActivate::gmean    77.927158                       # Bytes accessed per row activation
system.mem_ctrls.bytesPerActivate::stdev   159.921019                       # Bytes accessed per row activation
system.mem_ctrls.bytesPerActivate::0-127      6054176     86.94%     86.94% # Bytes accessed per row activation
system.mem_ctrls.bytesPerActivate::128-255       422532      6.07%     93.00% # Bytes accessed per row activation
system.mem_ctrls.bytesPerActivate::256-383       148112      2.13%     95.13% # Bytes accessed per row activation
system.mem_ctrls.bytesPerActivate::384-511        84865      1.22%     96.35% # Bytes accessed per row activation
system.mem_ctrls.bytesPerActivate::512-639        51829      0.74%     97.09% # Bytes accessed per row activation
system.mem_ctrls.bytesPerActivate::640-767        28855      0.41%     97.51% # Bytes accessed per row activation
system.mem_ctrls.bytesPerActivate::768-895        23353      0.34%     97.84% # Bytes accessed per row activation
system.mem_ctrls.bytesPerActivate::896-1023        20882      0.30%     98.14% # Bytes accessed per row activation
system.mem_ctrls.bytesPerActivate::1024-1151       129390      1.86%    100.00% # Bytes accessed per row activation
system.mem_ctrls.bytesPerActivate::total      6963994                       # Bytes accessed per row activation
system.mem_ctrls.rdPerTurnAround::samples       262403                       # Reads before turning the bus around for writes
system.mem_ctrls.rdPerTurnAround::mean      28.286574                       # Reads before turning the bus around for writes
system.mem_ctrls.rdPerTurnAround::gmean     22.152322                       # Reads before turning the bus around for writes
system.mem_ctrls.rdPerTurnAround::stdev    154.879909                       # Reads before turning the bus around for writes
system.mem_ctrls.rdPerTurnAround::0-1023       261917     99.81%     99.81% # Reads before turning the bus around for writes
system.mem_ctrls.rdPerTurnAround::1024-2047          289      0.11%     99.92% # Reads before turning the bus around for writes
system.mem_ctrls.rdPerTurnAround::2048-3071           86      0.03%     99.96% # Reads before turning the bus around for writes
system.mem_ctrls.rdPerTurnAround::3072-4095           46      0.02%     99.98% # Reads before turning the bus around for writes
system.mem_ctrls.rdPerTurnAround::4096-5119           24      0.01%     99.98% # Reads before turning the bus around for writes
system.mem_ctrls.rdPerTurnAround::5120-6143            8      0.00%     99.99% # Reads before turning the bus around for writes
system.mem_ctrls.rdPerTurnAround::6144-7167           10      0.00%     99.99% # Reads before turning the bus around for writes
system.mem_ctrls.rdPerTurnAround::7168-8191            5      0.00%     99.99% # Reads before turning the bus around for writes
system.mem_ctrls.rdPerTurnAround::8192-9215            3      0.00%     99.99% # Reads before turning the bus around for writes
system.mem_ctrls.rdPerTurnAround::9216-10239            1      0.00%     99.99% # Reads before turning the bus around for writes
system.mem_ctrls.rdPerTurnAround::10240-11263            3      0.00%    100.00% # Reads before turning the bus around for writes
system.mem_ctrls.rdPerTurnAround::11264-12287            1      0.00%    100.00% # Reads before turning the bus around for writes
system.mem_ctrls.rdPerTurnAround::12288-13311            4      0.00%    100.00% # Reads before turning the bus around for writes
system.mem_ctrls.rdPerTurnAround::13312-14335            1      0.00%    100.00% # Reads before turning the bus around for writes
system.mem_ctrls.rdPerTurnAround::14336-15359            3      0.00%    100.00% # Reads before turning the bus around for writes
system.mem_ctrls.rdPerTurnAround::16384-17407            1      0.00%    100.00% # Reads before turning the bus around for writes
system.mem_ctrls.rdPerTurnAround::17408-18431            1      0.00%    100.00% # Reads before turning the bus around for writes
system.mem_ctrls.rdPerTurnAround::total        262403                       # Reads before turning the bus around for writes
system.mem_ctrls.wrPerTurnAround::samples       262403                       # Writes before turning the bus around for reads
system.mem_ctrls.wrPerTurnAround::mean      16.028605                       # Writes before turning the bus around for reads
system.mem_ctrls.wrPerTurnAround::gmean     16.027025                       # Writes before turning the bus around for reads
system.mem_ctrls.wrPerTurnAround::stdev      0.233831                       # Writes before turning the bus around for reads
system.mem_ctrls.wrPerTurnAround::16           258363     98.46%     98.46% # Writes before turning the bus around for reads
system.mem_ctrls.wrPerTurnAround::17              635      0.24%     98.70% # Writes before turning the bus around for reads
system.mem_ctrls.wrPerTurnAround::18             3345      1.27%     99.98% # Writes before turning the bus around for reads
system.mem_ctrls.wrPerTurnAround::19               59      0.02%    100.00% # Writes before turning the bus around for reads
system.mem_ctrls.wrPerTurnAround::20                1      0.00%    100.00% # Writes before turning the bus around for reads
system.mem_ctrls.wrPerTurnAround::total        262403                       # Writes before turning the bus around for reads
system.mem_ctrls.totQLat                 169020401249                       # Total ticks spent queuing
system.mem_ctrls.totMemAccLat            308191826249                       # Total ticks spent from burst creation until serviced by the DRAM
system.mem_ctrls.totBusLat                37112380000                       # Total ticks spent in databus transfers
system.mem_ctrls.avgQLat                     22771.43                       # Average queueing delay per DRAM burst
system.mem_ctrls.avgBusLat                    5000.00                       # Average bus latency per DRAM burst
system.mem_ctrls.avgMemAccLat                41521.43                       # Average memory access latency per DRAM burst
system.mem_ctrls.avgRdBW                       243.27                       # Average DRAM read bandwidth in MiByte/s
system.mem_ctrls.avgWrBW                       137.85                       # Average achieved write bandwidth in MiByte/s
system.mem_ctrls.avgRdBWSys                    244.53                       # Average system read bandwidth in MiByte/s
system.mem_ctrls.avgWrBWSys                    137.87                       # Average system write bandwidth in MiByte/s
system.mem_ctrls.peakBW                      12800.00                       # Theoretical peak bandwidth in MiByte/s
system.mem_ctrls.busUtil                         2.98                       # Data bus utilization in percentage
system.mem_ctrls.busUtilRead                     1.90                       # Data bus utilization in percentage for reads
system.mem_ctrls.busUtilWrite                    1.08                       # Data bus utilization in percentage for writes
system.mem_ctrls.avgRdQLen                       1.00                       # Average read queue length when enqueuing
system.mem_ctrls.avgWrQLen                      25.64                       # Average write queue length when enqueuing
system.mem_ctrls.readRowHits                  3624979                       # Number of row buffer hits during reads
system.mem_ctrls.writeRowHits                 1039455                       # Number of row buffer hits during writes
system.mem_ctrls.readRowHitRate                 48.84                       # Row buffer hit rate for reads
system.mem_ctrls.writeRowHitRate                24.71                       # Row buffer hit rate for writes
system.mem_ctrls.avgGap                     167367.39                       # Average gap between requests
system.mem_ctrls.pageHitRate                    40.11                       # Row buffer hit rate, read and write combined
system.mem_ctrls_0.actEnergy              27235020960                       # Energy for activate commands per rank (pJ)
system.mem_ctrls_0.preEnergy              14860378500                       # Energy for precharge commands per rank (pJ)
system.mem_ctrls_0.readEnergy             29530542600                       # Energy for read commands per rank (pJ)
system.mem_ctrls_0.writeEnergy            13994091360                       # Energy for write commands per rank (pJ)
system.mem_ctrls_0.refreshEnergy         127765020240                       # Energy for refresh commands per rank (pJ)
system.mem_ctrls_0.actBackEnergy         717859811745                       # Energy for active background per rank (pJ)
system.mem_ctrls_0.preBackEnergy         543977647500                       # Energy for precharge background per rank (pJ)
system.mem_ctrls_0.totalEnergy           1475222512905                       # Total energy per rank (pJ)
system.mem_ctrls_0.averagePower            754.152821                       # Core power per rank (mW)
system.mem_ctrls_0.memoryStateTime::IDLE 898373373254                       # Time in different power states
system.mem_ctrls_0.memoryStateTime::REF   65206440000                       # Time in different power states
system.mem_ctrls_0.memoryStateTime::PRE_PDN            0                       # Time in different power states
system.mem_ctrls_0.memoryStateTime::ACT  989166993746                       # Time in different power states
system.mem_ctrls_0.memoryStateTime::ACT_PDN            0                       # Time in different power states
system.mem_ctrls_1.actEnergy              25442265240                       # Energy for activate commands per rank (pJ)
system.mem_ctrls_1.preEnergy              13882188375                       # Energy for precharge commands per rank (pJ)
system.mem_ctrls_1.readEnergy             28485826200                       # Energy for read commands per rank (pJ)
system.mem_ctrls_1.writeEnergy            13261021920                       # Energy for write commands per rank (pJ)
system.mem_ctrls_1.refreshEnergy         127765020240                       # Energy for refresh commands per rank (pJ)
system.mem_ctrls_1.actBackEnergy         711141525270                       # Energy for active background per rank (pJ)
system.mem_ctrls_1.preBackEnergy         549870881250                       # Energy for precharge background per rank (pJ)
system.mem_ctrls_1.totalEnergy           1469848728495                       # Total energy per rank (pJ)
system.mem_ctrls_1.averagePower            751.405673                       # Core power per rank (mW)
system.mem_ctrls_1.memoryStateTime::IDLE 908031961505                       # Time in different power states
system.mem_ctrls_1.memoryStateTime::REF   65206440000                       # Time in different power states
system.mem_ctrls_1.memoryStateTime::PRE_PDN            0                       # Time in different power states
system.mem_ctrls_1.memoryStateTime::ACT  979506951245                       # Time in different power states
system.mem_ctrls_1.memoryStateTime::ACT_PDN            0                       # Time in different power states
system.cpu_voltage_domain.voltage                   1                       # Voltage in Volts
system.cpu_clk_domain.clock                       500                       # Clock period in ticks
system.cpu0.apic_clk_domain.clock                8000                       # Clock period in ticks
system.cpu0.numCycles                      3908952206                       # number of cpu cycles simulated
system.cpu0.numWorkItemsStarted                     0                       # number of work items this cpu started
system.cpu0.numWorkItemsCompleted                   0                       # number of work items this cpu completed
system.cpu0.kern.inst.arm                           0                       # number of arm instructions executed
system.cpu0.kern.inst.quiesce                       0                       # number of quiesce instructions executed
system.cpu0.committedInsts                    1603360                       # Number of instructions committed
system.cpu0.committedOps                      3487298                       # Number of ops (including micro ops) committed
system.cpu0.num_int_alu_accesses              3412027                       # Number of integer alu accesses
system.cpu0.num_fp_alu_accesses                    39                       # Number of float alu accesses
system.cpu0.num_func_calls                     102620                       # number of times a function call or return occured
system.cpu0.num_conditional_control_insts       230519                       # number of instructions that are conditional controls
system.cpu0.num_int_insts                     3412027                       # number of integer instructions
system.cpu0.num_fp_insts                           39                       # number of float instructions
system.cpu0.num_int_register_reads            6940321                       # number of times the integer registers were read
system.cpu0.num_int_register_writes           2825524                       # number of times the integer registers were written
system.cpu0.num_fp_register_reads                  63                       # number of times the floating registers were read
system.cpu0.num_fp_register_writes                 31                       # number of times the floating registers were written
system.cpu0.num_cc_register_reads             1922143                       # number of times the CC registers were read
system.cpu0.num_cc_register_writes            1042938                       # number of times the CC registers were written
system.cpu0.num_mem_refs                       824727                       # number of memory refs
system.cpu0.num_load_insts                     508259                       # Number of load instructions
system.cpu0.num_store_insts                    316468                       # Number of store instructions
system.cpu0.num_idle_cycles              3896467319.714392                       # Number of idle cycles
system.cpu0.num_busy_cycles              12484886.285608                       # Number of busy cycles
system.cpu0.not_idle_fraction                0.003194                       # Percentage of non-idle cycles
system.cpu0.idle_fraction                    0.996806                       # Percentage of idle cycles
system.cpu0.Branches                           364556                       # Number of branches fetched
system.cpu0.op_class::No_OpClass                60414      1.73%      1.73% # Class of executed instruction
system.cpu0.op_class::IntAlu                  2575552     73.85%     75.59% # Class of executed instruction
system.cpu0.op_class::IntMult                    6466      0.19%     75.77% # Class of executed instruction
system.cpu0.op_class::IntDiv                    20131      0.58%     76.35% # Class of executed instruction
system.cpu0.op_class::FloatAdd                     30      0.00%     76.35% # Class of executed instruction
system.cpu0.op_class::FloatCmp                      0      0.00%     76.35% # Class of executed instruction
system.cpu0.op_class::FloatCvt                      0      0.00%     76.35% # Class of executed instruction
system.cpu0.op_class::FloatMult                     0      0.00%     76.35% # Class of executed instruction
system.cpu0.op_class::FloatDiv                      0      0.00%     76.35% # Class of executed instruction
system.cpu0.op_class::FloatSqrt                     0      0.00%     76.35% # Class of executed instruction
system.cpu0.op_class::SimdAdd                       0      0.00%     76.35% # Class of executed instruction
system.cpu0.op_class::SimdAddAcc                    0      0.00%     76.35% # Class of executed instruction
system.cpu0.op_class::SimdAlu                       0      0.00%     76.35% # Class of executed instruction
system.cpu0.op_class::SimdCmp                       0      0.00%     76.35% # Class of executed instruction
system.cpu0.op_class::SimdCvt                       0      0.00%     76.35% # Class of executed instruction
system.cpu0.op_class::SimdMisc                      0      0.00%     76.35% # Class of executed instruction
system.cpu0.op_class::SimdMult                      0      0.00%     76.35% # Class of executed instruction
system.cpu0.op_class::SimdMultAcc                   0      0.00%     76.35% # Class of executed instruction
system.cpu0.op_class::SimdShift                     0      0.00%     76.35% # Class of executed instruction
system.cpu0.op_class::SimdShiftAcc                  0      0.00%     76.35% # Class of executed instruction
system.cpu0.op_class::SimdSqrt                      0      0.00%     76.35% # Class of executed instruction
system.cpu0.op_class::SimdFloatAdd                  0      0.00%     76.35% # Class of executed instruction
system.cpu0.op_class::SimdFloatAlu                  0      0.00%     76.35% # Class of executed instruction
system.cpu0.op_class::SimdFloatCmp                  0      0.00%     76.35% # Class of executed instruction
system.cpu0.op_class::SimdFloatCvt                  0      0.00%     76.35% # Class of executed instruction
system.cpu0.op_class::SimdFloatDiv                  0      0.00%     76.35% # Class of executed instruction
system.cpu0.op_class::SimdFloatMisc                 0      0.00%     76.35% # Class of executed instruction
system.cpu0.op_class::SimdFloatMult                 0      0.00%     76.35% # Class of executed instruction
system.cpu0.op_class::SimdFloatMultAcc              0      0.00%     76.35% # Class of executed instruction
system.cpu0.op_class::SimdFloatSqrt                 0      0.00%     76.35% # Class of executed instruction
system.cpu0.op_class::MemRead                  508259     14.57%     90.93% # Class of executed instruction
system.cpu0.op_class::MemWrite                 316468      9.07%    100.00% # Class of executed instruction
system.cpu0.op_class::IprAccess                     0      0.00%    100.00% # Class of executed instruction
system.cpu0.op_class::InstPrefetch                  0      0.00%    100.00% # Class of executed instruction
system.cpu0.op_class::total                   3487320                       # Class of executed instruction
system.cpu1.apic_clk_domain.clock                8000                       # Clock period in ticks
system.cpu1.numCycles                      3907142613                       # number of cpu cycles simulated
system.cpu1.numWorkItemsStarted                     0                       # number of work items this cpu started
system.cpu1.numWorkItemsCompleted                   0                       # number of work items this cpu completed
system.cpu1.kern.inst.arm                           0                       # number of arm instructions executed
system.cpu1.kern.inst.quiesce                       0                       # number of quiesce instructions executed
system.cpu1.committedInsts                  717191805                       # Number of instructions committed
system.cpu1.committedOps                   1064491317                       # Number of ops (including micro ops) committed
system.cpu1.num_int_alu_accesses            463999439                       # Number of integer alu accesses
system.cpu1.num_fp_alu_accesses             708837843                       # Number of float alu accesses
system.cpu1.num_func_calls                     902883                       # number of times a function call or return occured
system.cpu1.num_conditional_control_insts     10838569                       # number of instructions that are conditional controls
system.cpu1.num_int_insts                   463999439                       # number of integer instructions
system.cpu1.num_fp_insts                    708837843                       # number of float instructions
system.cpu1.num_int_register_reads          972095946                       # number of times the integer registers were read
system.cpu1.num_int_register_writes         343860200                       # number of times the integer registers were written
system.cpu1.num_fp_register_reads          1593836311                       # number of times the floating registers were read
system.cpu1.num_fp_register_writes          654311799                       # number of times the floating registers were written
system.cpu1.num_cc_register_reads           111684516                       # number of times the CC registers were read
system.cpu1.num_cc_register_writes          201658204                       # number of times the CC registers were written
system.cpu1.num_mem_refs                    129374726                       # number of memory refs
system.cpu1.num_load_insts                   75457952                       # Number of load instructions
system.cpu1.num_store_insts                  53916774                       # Number of store instructions
system.cpu1.num_idle_cycles              13734340.435697                       # Number of idle cycles
system.cpu1.num_busy_cycles              3893408272.564303                       # Number of busy cycles
system.cpu1.not_idle_fraction                0.996485                       # Percentage of non-idle cycles
system.cpu1.idle_fraction                    0.003515                       # Percentage of idle cycles
system.cpu1.Branches                         12033386                       # Number of branches fetched
system.cpu1.op_class::No_OpClass               314080      0.03%      0.03% # Class of executed instruction
system.cpu1.op_class::IntAlu                431410775     40.53%     40.56% # Class of executed instruction
system.cpu1.op_class::IntMult                   89616      0.01%     40.56% # Class of executed instruction
system.cpu1.op_class::IntDiv                     1846      0.00%     40.56% # Class of executed instruction
system.cpu1.op_class::FloatAdd              503316796     47.28%     87.85% # Class of executed instruction
system.cpu1.op_class::FloatCmp                      0      0.00%     87.85% # Class of executed instruction
system.cpu1.op_class::FloatCvt                      0      0.00%     87.85% # Class of executed instruction
system.cpu1.op_class::FloatMult                     0      0.00%     87.85% # Class of executed instruction
system.cpu1.op_class::FloatDiv                      0      0.00%     87.85% # Class of executed instruction
system.cpu1.op_class::FloatSqrt                     0      0.00%     87.85% # Class of executed instruction
system.cpu1.op_class::SimdAdd                       0      0.00%     87.85% # Class of executed instruction
system.cpu1.op_class::SimdAddAcc                    0      0.00%     87.85% # Class of executed instruction
system.cpu1.op_class::SimdAlu                       0      0.00%     87.85% # Class of executed instruction
system.cpu1.op_class::SimdCmp                       0      0.00%     87.85% # Class of executed instruction
system.cpu1.op_class::SimdCvt                       0      0.00%     87.85% # Class of executed instruction
system.cpu1.op_class::SimdMisc                      0      0.00%     87.85% # Class of executed instruction
system.cpu1.op_class::SimdMult                      0      0.00%     87.85% # Class of executed instruction
system.cpu1.op_class::SimdMultAcc                   0      0.00%     87.85% # Class of executed instruction
system.cpu1.op_class::SimdShift                     0      0.00%     87.85% # Class of executed instruction
system.cpu1.op_class::SimdShiftAcc                  0      0.00%     87.85% # Class of executed instruction
system.cpu1.op_class::SimdSqrt                      0      0.00%     87.85% # Class of executed instruction
system.cpu1.op_class::SimdFloatAdd                  0      0.00%     87.85% # Class of executed instruction
system.cpu1.op_class::SimdFloatAlu                  0      0.00%     87.85% # Class of executed instruction
system.cpu1.op_class::SimdFloatCmp                  0      0.00%     87.85% # Class of executed instruction
system.cpu1.op_class::SimdFloatCvt                  0      0.00%     87.85% # Class of executed instruction
system.cpu1.op_class::SimdFloatDiv                  0      0.00%     87.85% # Class of executed instruction
system.cpu1.op_class::SimdFloatMisc                 0      0.00%     87.85% # Class of executed instruction
system.cpu1.op_class::SimdFloatMult                 0      0.00%     87.85% # Class of executed instruction
system.cpu1.op_class::SimdFloatMultAcc              0      0.00%     87.85% # Class of executed instruction
system.cpu1.op_class::SimdFloatSqrt                 0      0.00%     87.85% # Class of executed instruction
system.cpu1.op_class::MemRead                75457952      7.09%     94.94% # Class of executed instruction
system.cpu1.op_class::MemWrite               53916774      5.06%    100.00% # Class of executed instruction
system.cpu1.op_class::IprAccess                     0      0.00%    100.00% # Class of executed instruction
system.cpu1.op_class::InstPrefetch                  0      0.00%    100.00% # Class of executed instruction
system.cpu1.op_class::total                1064507839                       # Class of executed instruction
system.cpu2.apic_clk_domain.clock                8000                       # Clock period in ticks
system.cpu2.numCycles                      3903383060                       # number of cpu cycles simulated
system.cpu2.numWorkItemsStarted                     0                       # number of work items this cpu started
system.cpu2.numWorkItemsCompleted                   0                       # number of work items this cpu completed
system.cpu2.kern.inst.arm                           0                       # number of arm instructions executed
system.cpu2.kern.inst.quiesce                       0                       # number of quiesce instructions executed
system.cpu2.committedInsts                    1357722                       # Number of instructions committed
system.cpu2.committedOps                      2938052                       # Number of ops (including micro ops) committed
system.cpu2.num_int_alu_accesses              2872759                       # Number of integer alu accesses
system.cpu2.num_fp_alu_accesses                     0                       # Number of float alu accesses
system.cpu2.num_func_calls                      81004                       # number of times a function call or return occured
system.cpu2.num_conditional_control_insts       206592                       # number of instructions that are conditional controls
system.cpu2.num_int_insts                     2872759                       # number of integer instructions
system.cpu2.num_fp_insts                            0                       # number of float instructions
system.cpu2.num_int_register_reads            5837987                       # number of times the integer registers were read
system.cpu2.num_int_register_writes           2385734                       # number of times the integer registers were written
system.cpu2.num_fp_register_reads                   0                       # number of times the floating registers were read
system.cpu2.num_fp_register_writes                  0                       # number of times the floating registers were written
system.cpu2.num_cc_register_reads             1657798                       # number of times the CC registers were read
system.cpu2.num_cc_register_writes             866857                       # number of times the CC registers were written
system.cpu2.num_mem_refs                       699105                       # number of memory refs
system.cpu2.num_load_insts                     434934                       # Number of load instructions
system.cpu2.num_store_insts                    264171                       # Number of store instructions
system.cpu2.num_idle_cycles              3892436864.877976                       # Number of idle cycles
system.cpu2.num_busy_cycles              10946195.122024                       # Number of busy cycles
system.cpu2.not_idle_fraction                0.002804                       # Percentage of non-idle cycles
system.cpu2.idle_fraction                    0.997196                       # Percentage of idle cycles
system.cpu2.Branches                           314047                       # Number of branches fetched
system.cpu2.op_class::No_OpClass                55998      1.91%      1.91% # Class of executed instruction
system.cpu2.op_class::IntAlu                  2157136     73.42%     75.33% # Class of executed instruction
system.cpu2.op_class::IntMult                    5881      0.20%     75.53% # Class of executed instruction
system.cpu2.op_class::IntDiv                    19936      0.68%     76.21% # Class of executed instruction
system.cpu2.op_class::FloatAdd                      0      0.00%     76.21% # Class of executed instruction
system.cpu2.op_class::FloatCmp                      0      0.00%     76.21% # Class of executed instruction
system.cpu2.op_class::FloatCvt                      0      0.00%     76.21% # Class of executed instruction
system.cpu2.op_class::FloatMult                     0      0.00%     76.21% # Class of executed instruction
system.cpu2.op_class::FloatDiv                      0      0.00%     76.21% # Class of executed instruction
system.cpu2.op_class::FloatSqrt                     0      0.00%     76.21% # Class of executed instruction
system.cpu2.op_class::SimdAdd                       0      0.00%     76.21% # Class of executed instruction
system.cpu2.op_class::SimdAddAcc                    0      0.00%     76.21% # Class of executed instruction
system.cpu2.op_class::SimdAlu                       0      0.00%     76.21% # Class of executed instruction
system.cpu2.op_class::SimdCmp                       0      0.00%     76.21% # Class of executed instruction
system.cpu2.op_class::SimdCvt                       0      0.00%     76.21% # Class of executed instruction
system.cpu2.op_class::SimdMisc                      0      0.00%     76.21% # Class of executed instruction
system.cpu2.op_class::SimdMult                      0      0.00%     76.21% # Class of executed instruction
system.cpu2.op_class::SimdMultAcc                   0      0.00%     76.21% # Class of executed instruction
system.cpu2.op_class::SimdShift                     0      0.00%     76.21% # Class of executed instruction
system.cpu2.op_class::SimdShiftAcc                  0      0.00%     76.21% # Class of executed instruction
system.cpu2.op_class::SimdSqrt                      0      0.00%     76.21% # Class of executed instruction
system.cpu2.op_class::SimdFloatAdd                  0      0.00%     76.21% # Class of executed instruction
system.cpu2.op_class::SimdFloatAlu                  0      0.00%     76.21% # Class of executed instruction
system.cpu2.op_class::SimdFloatCmp                  0      0.00%     76.21% # Class of executed instruction
system.cpu2.op_class::SimdFloatCvt                  0      0.00%     76.21% # Class of executed instruction
system.cpu2.op_class::SimdFloatDiv                  0      0.00%     76.21% # Class of executed instruction
system.cpu2.op_class::SimdFloatMisc                 0      0.00%     76.21% # Class of executed instruction
system.cpu2.op_class::SimdFloatMult                 0      0.00%     76.21% # Class of executed instruction
system.cpu2.op_class::SimdFloatMultAcc              0      0.00%     76.21% # Class of executed instruction
system.cpu2.op_class::SimdFloatSqrt                 0      0.00%     76.21% # Class of executed instruction
system.cpu2.op_class::MemRead                  434934     14.80%     91.01% # Class of executed instruction
system.cpu2.op_class::MemWrite                 264171      8.99%    100.00% # Class of executed instruction
system.cpu2.op_class::IprAccess                     0      0.00%    100.00% # Class of executed instruction
system.cpu2.op_class::InstPrefetch                  0      0.00%    100.00% # Class of executed instruction
system.cpu2.op_class::total                   2938056                       # Class of executed instruction
system.cpu3.apic_clk_domain.clock                8000                       # Clock period in ticks
system.cpu3.numCycles                      3904672236                       # number of cpu cycles simulated
system.cpu3.numWorkItemsStarted                     0                       # number of work items this cpu started
system.cpu3.numWorkItemsCompleted                   0                       # number of work items this cpu completed
system.cpu3.kern.inst.arm                           0                       # number of arm instructions executed
system.cpu3.kern.inst.quiesce                       0                       # number of quiesce instructions executed
system.cpu3.committedInsts                    3919561                       # Number of instructions committed
system.cpu3.committedOps                      7865930                       # Number of ops (including micro ops) committed
system.cpu3.num_int_alu_accesses              7723159                       # Number of integer alu accesses
system.cpu3.num_fp_alu_accesses                  1778                       # Number of float alu accesses
system.cpu3.num_func_calls                     204872                       # number of times a function call or return occured
system.cpu3.num_conditional_control_insts       660330                       # number of instructions that are conditional controls
system.cpu3.num_int_insts                     7723159                       # number of integer instructions
system.cpu3.num_fp_insts                         1778                       # number of float instructions
system.cpu3.num_int_register_reads           15374018                       # number of times the integer registers were read
system.cpu3.num_int_register_writes           6290683                       # number of times the integer registers were written
system.cpu3.num_fp_register_reads                2988                       # number of times the floating registers were read
system.cpu3.num_fp_register_writes               1416                       # number of times the floating registers were written
system.cpu3.num_cc_register_reads             4964212                       # number of times the CC registers were read
system.cpu3.num_cc_register_writes            2668585                       # number of times the CC registers were written
system.cpu3.num_mem_refs                      1779357                       # number of memory refs
system.cpu3.num_load_insts                    1153629                       # Number of load instructions
system.cpu3.num_store_insts                    625728                       # Number of store instructions
system.cpu3.num_idle_cycles              3881715572.614464                       # Number of idle cycles
system.cpu3.num_busy_cycles              22956663.385536                       # Number of busy cycles
system.cpu3.not_idle_fraction                0.005879                       # Percentage of non-idle cycles
system.cpu3.idle_fraction                    0.994121                       # Percentage of idle cycles
system.cpu3.Branches                           902936                       # Number of branches fetched
system.cpu3.op_class::No_OpClass                60309      0.77%      0.77% # Class of executed instruction
system.cpu3.op_class::IntAlu                  5997684     76.25%     77.01% # Class of executed instruction
system.cpu3.op_class::IntMult                    6940      0.09%     77.10% # Class of executed instruction
system.cpu3.op_class::IntDiv                    20386      0.26%     77.36% # Class of executed instruction
system.cpu3.op_class::FloatAdd                   1344      0.02%     77.38% # Class of executed instruction
system.cpu3.op_class::FloatCmp                      0      0.00%     77.38% # Class of executed instruction
system.cpu3.op_class::FloatCvt                      0      0.00%     77.38% # Class of executed instruction
system.cpu3.op_class::FloatMult                     0      0.00%     77.38% # Class of executed instruction
system.cpu3.op_class::FloatDiv                      0      0.00%     77.38% # Class of executed instruction
system.cpu3.op_class::FloatSqrt                     0      0.00%     77.38% # Class of executed instruction
system.cpu3.op_class::SimdAdd                       0      0.00%     77.38% # Class of executed instruction
system.cpu3.op_class::SimdAddAcc                    0      0.00%     77.38% # Class of executed instruction
system.cpu3.op_class::SimdAlu                       0      0.00%     77.38% # Class of executed instruction
system.cpu3.op_class::SimdCmp                       0      0.00%     77.38% # Class of executed instruction
system.cpu3.op_class::SimdCvt                       0      0.00%     77.38% # Class of executed instruction
system.cpu3.op_class::SimdMisc                      0      0.00%     77.38% # Class of executed instruction
system.cpu3.op_class::SimdMult                      0      0.00%     77.38% # Class of executed instruction
system.cpu3.op_class::SimdMultAcc                   0      0.00%     77.38% # Class of executed instruction
system.cpu3.op_class::SimdShift                     0      0.00%     77.38% # Class of executed instruction
system.cpu3.op_class::SimdShiftAcc                  0      0.00%     77.38% # Class of executed instruction
system.cpu3.op_class::SimdSqrt                      0      0.00%     77.38% # Class of executed instruction
system.cpu3.op_class::SimdFloatAdd                  0      0.00%     77.38% # Class of executed instruction
system.cpu3.op_class::SimdFloatAlu                  0      0.00%     77.38% # Class of executed instruction
system.cpu3.op_class::SimdFloatCmp                  0      0.00%     77.38% # Class of executed instruction
system.cpu3.op_class::SimdFloatCvt                  0      0.00%     77.38% # Class of executed instruction
system.cpu3.op_class::SimdFloatDiv                  0      0.00%     77.38% # Class of executed instruction
system.cpu3.op_class::SimdFloatMisc                 0      0.00%     77.38% # Class of executed instruction
system.cpu3.op_class::SimdFloatMult                 0      0.00%     77.38% # Class of executed instruction
system.cpu3.op_class::SimdFloatMultAcc              0      0.00%     77.38% # Class of executed instruction
system.cpu3.op_class::SimdFloatSqrt                 0      0.00%     77.38% # Class of executed instruction
system.cpu3.op_class::MemRead                 1153629     14.67%     92.05% # Class of executed instruction
system.cpu3.op_class::MemWrite                 625728      7.95%    100.00% # Class of executed instruction
system.cpu3.op_class::IprAccess                     0      0.00%    100.00% # Class of executed instruction
system.cpu3.op_class::InstPrefetch                  0      0.00%    100.00% # Class of executed instruction
system.cpu3.op_class::total                   7866020                       # Class of executed instruction
system.iobus.trans_dist::ReadReq                   82                       # Transaction distribution
system.iobus.trans_dist::ReadResp                  82                       # Transaction distribution
system.iobus.trans_dist::WriteReq                2015                       # Transaction distribution
system.iobus.trans_dist::WriteResp               2015                       # Transaction distribution
system.iobus.trans_dist::MessageReq                12                       # Transaction distribution
system.iobus.trans_dist::MessageResp               12                       # Transaction distribution
system.iobus.pkt_count_system.pc.south_bridge.io_apic.int_master::system.ruby.l1_cntrl0.sequencer.pio-slave-port            2                       # Packet count per connected master and slave (bytes)
system.iobus.pkt_count_system.pc.south_bridge.io_apic.int_master::system.ruby.l1_cntrl1.sequencer.pio-slave-port            4                       # Packet count per connected master and slave (bytes)
system.iobus.pkt_count_system.pc.south_bridge.io_apic.int_master::system.ruby.l1_cntrl2.sequencer.pio-slave-port            2                       # Packet count per connected master and slave (bytes)
system.iobus.pkt_count_system.pc.south_bridge.io_apic.int_master::system.ruby.l1_cntrl3.sequencer.pio-slave-port            2                       # Packet count per connected master and slave (bytes)
system.iobus.pkt_count_system.pc.south_bridge.io_apic.int_master::total           10                       # Packet count per connected master and slave (bytes)
system.iobus.pkt_count_system.ruby.l1_cntrl0.sequencer.mem-master-port::system.pc.south_bridge.io_apic.pio            6                       # Packet count per connected master and slave (bytes)
system.iobus.pkt_count_system.ruby.l1_cntrl0.sequencer.mem-master-port::system.pc.com_1.pio           22                       # Packet count per connected master and slave (bytes)
system.iobus.pkt_count_system.ruby.l1_cntrl0.sequencer.mem-master-port::system.ruby.l1_cntrl0.sequencer.pio-slave-port          990                       # Packet count per connected master and slave (bytes)
system.iobus.pkt_count_system.ruby.l1_cntrl0.sequencer.mem-master-port::system.ruby.l1_cntrl1.sequencer.pio-slave-port            2                       # Packet count per connected master and slave (bytes)
system.iobus.pkt_count_system.ruby.l1_cntrl0.sequencer.mem-master-port::total         1020                       # Packet count per connected master and slave (bytes)
system.iobus.pkt_count_system.ruby.l1_cntrl1.sequencer.mem-master-port::system.pc.south_bridge.io_apic.pio           14                       # Packet count per connected master and slave (bytes)
system.iobus.pkt_count_system.ruby.l1_cntrl1.sequencer.mem-master-port::system.pc.com_1.pio          162                       # Packet count per connected master and slave (bytes)
system.iobus.pkt_count_system.ruby.l1_cntrl1.sequencer.mem-master-port::system.ruby.l1_cntrl0.sequencer.pio-slave-port            2                       # Packet count per connected master and slave (bytes)
system.iobus.pkt_count_system.ruby.l1_cntrl1.sequencer.mem-master-port::system.ruby.l1_cntrl1.sequencer.pio-slave-port          996                       # Packet count per connected master and slave (bytes)
system.iobus.pkt_count_system.ruby.l1_cntrl1.sequencer.mem-master-port::system.ruby.l1_cntrl2.sequencer.pio-slave-port            2                       # Packet count per connected master and slave (bytes)
system.iobus.pkt_count_system.ruby.l1_cntrl1.sequencer.mem-master-port::total         1176                       # Packet count per connected master and slave (bytes)
system.iobus.pkt_count_system.ruby.l1_cntrl2.sequencer.mem-master-port::system.pc.south_bridge.io_apic.pio            8                       # Packet count per connected master and slave (bytes)
system.iobus.pkt_count_system.ruby.l1_cntrl2.sequencer.mem-master-port::system.ruby.l1_cntrl2.sequencer.pio-slave-port          988                       # Packet count per connected master and slave (bytes)
system.iobus.pkt_count_system.ruby.l1_cntrl2.sequencer.mem-master-port::system.ruby.l1_cntrl3.sequencer.pio-slave-port            2                       # Packet count per connected master and slave (bytes)
system.iobus.pkt_count_system.ruby.l1_cntrl2.sequencer.mem-master-port::total          998                       # Packet count per connected master and slave (bytes)
system.iobus.pkt_count_system.ruby.l1_cntrl3.sequencer.mem-master-port::system.pc.south_bridge.io_apic.pio            8                       # Packet count per connected master and slave (bytes)
system.iobus.pkt_count_system.ruby.l1_cntrl3.sequencer.mem-master-port::system.ruby.l1_cntrl0.sequencer.pio-slave-port            2                       # Packet count per connected master and slave (bytes)
system.iobus.pkt_count_system.ruby.l1_cntrl3.sequencer.mem-master-port::system.ruby.l1_cntrl1.sequencer.pio-slave-port            2                       # Packet count per connected master and slave (bytes)
system.iobus.pkt_count_system.ruby.l1_cntrl3.sequencer.mem-master-port::system.ruby.l1_cntrl2.sequencer.pio-slave-port            2                       # Packet count per connected master and slave (bytes)
system.iobus.pkt_count_system.ruby.l1_cntrl3.sequencer.mem-master-port::system.ruby.l1_cntrl3.sequencer.pio-slave-port         1000                       # Packet count per connected master and slave (bytes)
system.iobus.pkt_count_system.ruby.l1_cntrl3.sequencer.mem-master-port::total         1014                       # Packet count per connected master and slave (bytes)
system.iobus.pkt_count::total                    4218                       # Packet count per connected master and slave (bytes)
system.iobus.pkt_size_system.pc.south_bridge.io_apic.int_master::system.ruby.l1_cntrl0.sequencer.pio-slave-port            4                       # Cumulative packet size per connected master and slave (bytes)
system.iobus.pkt_size_system.pc.south_bridge.io_apic.int_master::system.ruby.l1_cntrl1.sequencer.pio-slave-port            8                       # Cumulative packet size per connected master and slave (bytes)
system.iobus.pkt_size_system.pc.south_bridge.io_apic.int_master::system.ruby.l1_cntrl2.sequencer.pio-slave-port            4                       # Cumulative packet size per connected master and slave (bytes)
system.iobus.pkt_size_system.pc.south_bridge.io_apic.int_master::system.ruby.l1_cntrl3.sequencer.pio-slave-port            4                       # Cumulative packet size per connected master and slave (bytes)
system.iobus.pkt_size_system.pc.south_bridge.io_apic.int_master::total           20                       # Cumulative packet size per connected master and slave (bytes)
system.iobus.pkt_size_system.ruby.l1_cntrl0.sequencer.mem-master-port::system.pc.south_bridge.io_apic.pio           12                       # Cumulative packet size per connected master and slave (bytes)
system.iobus.pkt_size_system.ruby.l1_cntrl0.sequencer.mem-master-port::system.pc.com_1.pio           11                       # Cumulative packet size per connected master and slave (bytes)
system.iobus.pkt_size_system.ruby.l1_cntrl0.sequencer.mem-master-port::system.ruby.l1_cntrl0.sequencer.pio-slave-port         1980                       # Cumulative packet size per connected master and slave (bytes)
system.iobus.pkt_size_system.ruby.l1_cntrl0.sequencer.mem-master-port::system.ruby.l1_cntrl1.sequencer.pio-slave-port            4                       # Cumulative packet size per connected master and slave (bytes)
system.iobus.pkt_size_system.ruby.l1_cntrl0.sequencer.mem-master-port::total         2007                       # Cumulative packet size per connected master and slave (bytes)
system.iobus.pkt_size_system.ruby.l1_cntrl1.sequencer.mem-master-port::system.pc.south_bridge.io_apic.pio           28                       # Cumulative packet size per connected master and slave (bytes)
system.iobus.pkt_size_system.ruby.l1_cntrl1.sequencer.mem-master-port::system.pc.com_1.pio           81                       # Cumulative packet size per connected master and slave (bytes)
system.iobus.pkt_size_system.ruby.l1_cntrl1.sequencer.mem-master-port::system.ruby.l1_cntrl0.sequencer.pio-slave-port            4                       # Cumulative packet size per connected master and slave (bytes)
system.iobus.pkt_size_system.ruby.l1_cntrl1.sequencer.mem-master-port::system.ruby.l1_cntrl1.sequencer.pio-slave-port         1992                       # Cumulative packet size per connected master and slave (bytes)
system.iobus.pkt_size_system.ruby.l1_cntrl1.sequencer.mem-master-port::system.ruby.l1_cntrl2.sequencer.pio-slave-port            4                       # Cumulative packet size per connected master and slave (bytes)
system.iobus.pkt_size_system.ruby.l1_cntrl1.sequencer.mem-master-port::total         2109                       # Cumulative packet size per connected master and slave (bytes)
system.iobus.pkt_size_system.ruby.l1_cntrl2.sequencer.mem-master-port::system.pc.south_bridge.io_apic.pio           16                       # Cumulative packet size per connected master and slave (bytes)
system.iobus.pkt_size_system.ruby.l1_cntrl2.sequencer.mem-master-port::system.ruby.l1_cntrl2.sequencer.pio-slave-port         1976                       # Cumulative packet size per connected master and slave (bytes)
system.iobus.pkt_size_system.ruby.l1_cntrl2.sequencer.mem-master-port::system.ruby.l1_cntrl3.sequencer.pio-slave-port            4                       # Cumulative packet size per connected master and slave (bytes)
system.iobus.pkt_size_system.ruby.l1_cntrl2.sequencer.mem-master-port::total         1996                       # Cumulative packet size per connected master and slave (bytes)
system.iobus.pkt_size_system.ruby.l1_cntrl3.sequencer.mem-master-port::system.pc.south_bridge.io_apic.pio           16                       # Cumulative packet size per connected master and slave (bytes)
system.iobus.pkt_size_system.ruby.l1_cntrl3.sequencer.mem-master-port::system.ruby.l1_cntrl0.sequencer.pio-slave-port            4                       # Cumulative packet size per connected master and slave (bytes)
system.iobus.pkt_size_system.ruby.l1_cntrl3.sequencer.mem-master-port::system.ruby.l1_cntrl1.sequencer.pio-slave-port            4                       # Cumulative packet size per connected master and slave (bytes)
system.iobus.pkt_size_system.ruby.l1_cntrl3.sequencer.mem-master-port::system.ruby.l1_cntrl2.sequencer.pio-slave-port            4                       # Cumulative packet size per connected master and slave (bytes)
system.iobus.pkt_size_system.ruby.l1_cntrl3.sequencer.mem-master-port::system.ruby.l1_cntrl3.sequencer.pio-slave-port         2000                       # Cumulative packet size per connected master and slave (bytes)
system.iobus.pkt_size_system.ruby.l1_cntrl3.sequencer.mem-master-port::total         2028                       # Cumulative packet size per connected master and slave (bytes)
system.iobus.pkt_size::total                     8160                       # Cumulative packet size per connected master and slave (bytes)
system.iobus.reqLayer8.occupancy                32496                       # Layer occupancy (ticks)
system.iobus.reqLayer8.utilization                0.0                       # Layer utilization (%)
system.iobus.reqLayer12.occupancy              119000                       # Layer occupancy (ticks)
system.iobus.reqLayer12.utilization               0.0                       # Layer utilization (%)
system.iobus.reqLayer17.occupancy             1109499                       # Layer occupancy (ticks)
system.iobus.reqLayer17.utilization               0.0                       # Layer utilization (%)
system.iobus.reqLayer18.occupancy             1263223                       # Layer occupancy (ticks)
system.iobus.reqLayer18.utilization               0.0                       # Layer utilization (%)
system.iobus.reqLayer19.occupancy             1139500                       # Layer occupancy (ticks)
system.iobus.reqLayer19.utilization               0.0                       # Layer utilization (%)
system.iobus.reqLayer20.occupancy             1131998                       # Layer occupancy (ticks)
system.iobus.reqLayer20.utilization               0.0                       # Layer utilization (%)
system.iobus.respLayer0.occupancy                6500                       # Layer occupancy (ticks)
system.iobus.respLayer0.utilization               0.0                       # Layer utilization (%)
system.iobus.respLayer2.occupancy              767500                       # Layer occupancy (ticks)
system.iobus.respLayer2.utilization               0.0                       # Layer utilization (%)
system.iobus.respLayer4.occupancy              901000                       # Layer occupancy (ticks)
system.iobus.respLayer4.utilization               0.0                       # Layer utilization (%)
system.iobus.respLayer6.occupancy              749000                       # Layer occupancy (ticks)
system.iobus.respLayer6.utilization               0.0                       # Layer utilization (%)
system.iobus.respLayer8.occupancy              762500                       # Layer occupancy (ticks)
system.iobus.respLayer8.utilization               0.0                       # Layer utilization (%)
system.pc.south_bridge.ide.disks.dma_read_full_pages            0                       # Number of full page size DMA reads (not PRD).
system.pc.south_bridge.ide.disks.dma_read_bytes            0                       # Number of bytes transfered via DMA reads (not PRD).
system.pc.south_bridge.ide.disks.dma_read_txs            0                       # Number of DMA read transactions (not PRD).
system.pc.south_bridge.ide.disks.dma_write_full_pages            0                       # Number of full page size DMA writes.
system.pc.south_bridge.ide.disks.dma_write_bytes            0                       # Number of bytes transfered via DMA writes.
system.pc.south_bridge.ide.disks.dma_write_txs            0                       # Number of DMA write transactions.
system.ruby.clk_domain.clock                      500                       # Clock period in ticks
system.ruby.delayHist::bucket_size                  4                       # delay histogram for all message
system.ruby.delayHist::max_bucket                  39                       # delay histogram for all message
system.ruby.delayHist::samples              132027564                       # delay histogram for all message
system.ruby.delayHist::mean                  0.838503                       # delay histogram for all message
system.ruby.delayHist::stdev                 2.450632                       # delay histogram for all message
system.ruby.delayHist                    |   118203124     89.53%     89.53% |       19065      0.01%     89.54% |    13800358     10.45%    100.00% |        1318      0.00%    100.00% |        3673      0.00%    100.00% |           4      0.00%    100.00% |          13      0.00%    100.00% |           2      0.00%    100.00% |           2      0.00%    100.00% |           5      0.00%    100.00% # delay histogram for all message
system.ruby.delayHist::total                132027564                       # delay histogram for all message
system.ruby.outstanding_req_hist_seqr::bucket_size            1                      
system.ruby.outstanding_req_hist_seqr::max_bucket            9                      
system.ruby.outstanding_req_hist_seqr::samples   1226611065                      
system.ruby.outstanding_req_hist_seqr::mean     1.000000                      
system.ruby.outstanding_req_hist_seqr::gmean     1.000000                      
system.ruby.outstanding_req_hist_seqr::stdev     0.000432                      
system.ruby.outstanding_req_hist_seqr    |           0      0.00%      0.00% |  1226610836    100.00%    100.00% |         229      0.00%    100.00% |           0      0.00%    100.00% |           0      0.00%    100.00% |           0      0.00%    100.00% |           0      0.00%    100.00% |           0      0.00%    100.00% |           0      0.00%    100.00% |           0      0.00%    100.00%
system.ruby.outstanding_req_hist_seqr::total   1226611065                      
system.ruby.latency_hist_seqr::bucket_size          512                      
system.ruby.latency_hist_seqr::max_bucket         5119                      
system.ruby.latency_hist_seqr::samples     1226611065                      
system.ruby.latency_hist_seqr::mean          2.210226                      
system.ruby.latency_hist_seqr::gmean         1.071436                      
system.ruby.latency_hist_seqr::stdev        15.487899                      
system.ruby.latency_hist_seqr            |  1226373676     99.98%     99.98% |      217360      0.02%    100.00% |       16395      0.00%    100.00% |        3135      0.00%    100.00% |         474      0.00%    100.00% |          25      0.00%    100.00% |           0      0.00%    100.00% |           0      0.00%    100.00% |           0      0.00%    100.00% |           0      0.00%    100.00%
system.ruby.latency_hist_seqr::total       1226611065                      
system.ruby.hit_latency_hist_seqr::bucket_size            1                      
system.ruby.hit_latency_hist_seqr::max_bucket            9                      
system.ruby.hit_latency_hist_seqr::samples   1203106246                      
system.ruby.hit_latency_hist_seqr::mean             1                      
system.ruby.hit_latency_hist_seqr::gmean            1                      
system.ruby.hit_latency_hist_seqr        |           0      0.00%      0.00% |  1203106246    100.00%    100.00% |           0      0.00%    100.00% |           0      0.00%    100.00% |           0      0.00%    100.00% |           0      0.00%    100.00% |           0      0.00%    100.00% |           0      0.00%    100.00% |           0      0.00%    100.00% |           0      0.00%    100.00%
system.ruby.hit_latency_hist_seqr::total   1203106246                      
system.ruby.miss_latency_hist_seqr::bucket_size          512                      
system.ruby.miss_latency_hist_seqr::max_bucket         5119                      
[...]
system.ruby.Directory_Controller.M_DRDI.Memory_Ack            2      0.00%      0.00%
system.ruby.DMA_Controller.ReadRequest   |           2    100.00%    100.00% |           0      0.00%    100.00%
system.ruby.DMA_Controller.ReadRequest::total            2                      
system.ruby.DMA_Controller.WriteRequest  |         128    100.00%    100.00% |           0      0.00%    100.00%
system.ruby.DMA_Controller.WriteRequest::total          128                      
system.ruby.DMA_Controller.Data          |           2    100.00%    100.00% |           0      0.00%    100.00%
system.ruby.DMA_Controller.Data::total              2                      
system.ruby.DMA_Controller.Ack           |         128    100.00%    100.00% |           0      0.00%    100.00%
system.ruby.DMA_Controller.Ack::total             128                      
system.ruby.DMA_Controller.READY.ReadRequest |           2    100.00%    100.00% |           0      0.00%    100.00%
system.ruby.DMA_Controller.READY.ReadRequest::total            2                      
system.ruby.DMA_Controller.READY.WriteRequest |         128    100.00%    100.00% |           0      0.00%    100.00%
system.ruby.DMA_Controller.READY.WriteRequest::total          128                      
system.ruby.DMA_Controller.BUSY_RD.Data  |           2    100.00%    100.00% |           0      0.00%    100.00%
system.ruby.DMA_Controller.BUSY_RD.Data::total            2                      
system.ruby.DMA_Controller.BUSY_WR.Ack   |         128    100.00%    100.00% |           0      0.00%    100.00%
system.ruby.DMA_Controller.BUSY_WR.Ack::total          128                      
system.ruby.L1Cache_Controller.Load      |      668676      0.73%      0.73% |    87339378     94.78%     95.50% |      911781      0.99%     96.49% |     3230723      3.51%    100.00%
system.ruby.L1Cache_Controller.Load::total     92150558                      
system.ruby.L1Cache_Controller.Ifetch    |     3088534      0.29%      0.29% |  1051703255     97.51%     97.80% |     4438726      0.41%     98.21% |    19327015      1.79%    100.00%
system.ruby.L1Cache_Controller.Ifetch::total   1078557530                      
system.ruby.L1Cache_Controller.Store     |      508584      0.61%      0.61% |    80086862     95.59%     96.20% |      716556      0.86%     97.05% |     2470137      2.95%    100.00%
system.ruby.L1Cache_Controller.Store::total     83782139                      
system.ruby.L1Cache_Controller.Inv       |       62424     23.64%     23.64% |       74842     28.35%     51.99% |       58878     22.30%     74.29% |       67868     25.71%    100.00%
system.ruby.L1Cache_Controller.Inv::total       264012                      
system.ruby.L1Cache_Controller.L1_Replacement |       57738      0.24%      0.24% |    23233921     98.56%     98.81% |       63671      0.27%     99.08% |      217222      0.92%    100.00%
system.ruby.L1Cache_Controller.L1_Replacement::total     23572552                      
system.ruby.L1Cache_Controller.Fwd_GETX  |         927     22.67%     22.67% |         766     18.73%     41.39% |        1399     34.21%     75.60% |         998     24.40%    100.00%
system.ruby.L1Cache_Controller.Fwd_GETX::total         4090                      
system.ruby.L1Cache_Controller.Fwd_GETS  |        7121     40.27%     40.27% |        2112     11.94%     52.21% |        5321     30.09%     82.30% |        3131     17.70%    100.00%
system.ruby.L1Cache_Controller.Fwd_GETS::total        17685                      
system.ruby.L1Cache_Controller.Data      |          38      2.20%      2.20% |         746     43.22%     45.42% |         842     48.78%     94.21% |         100      5.79%    100.00%
system.ruby.L1Cache_Controller.Data::total         1726                      
system.ruby.L1Cache_Controller.Data_Exclusive |       18725      0.14%      0.14% |    13409400     98.78%     98.92% |       22438      0.17%     99.09% |      123810      0.91%    100.00%
system.ruby.L1Cache_Controller.Data_Exclusive::total     13574373                      
system.ruby.L1Cache_Controller.DataS_fromL1 |        4811     27.20%     27.20% |        1881     10.64%     37.84% |        3494     19.76%     57.60% |        7499     42.40%    100.00%
system.ruby.L1Cache_Controller.DataS_fromL1::total        17685                      
system.ruby.L1Cache_Controller.Data_all_Acks |       82273      0.81%      0.81% |     9867499     97.05%     97.86% |       82858      0.81%     98.68% |      134675      1.32%    100.00%
system.ruby.L1Cache_Controller.Data_all_Acks::total     10167305                      
system.ruby.L1Cache_Controller.Ack       |        9695     44.60%     44.60% |        4958     22.81%     67.41% |        3375     15.53%     82.94% |        3709     17.06%    100.00%
system.ruby.L1Cache_Controller.Ack::total        21737                      
system.ruby.L1Cache_Controller.Ack_all   |        4318     33.70%     33.70% |        3071     23.97%     57.67% |        2690     20.99%     78.66% |        2734     21.34%    100.00%
system.ruby.L1Cache_Controller.Ack_all::total        12813                      
system.ruby.L1Cache_Controller.WB_Ack    |       13146      0.06%      0.06% |    23144084     99.13%     99.19% |       21735      0.09%     99.28% |      167320      0.72%    100.00%
system.ruby.L1Cache_Controller.WB_Ack::total     23346285                      
system.ruby.L1Cache_Controller.NP.Load   |       18244      0.13%      0.13% |    13422566     98.79%     98.92% |       21699      0.16%     99.08% |      124966      0.92%    100.00%
system.ruby.L1Cache_Controller.NP.Load::total     13587475                      
system.ruby.L1Cache_Controller.NP.Ifetch |       33282     20.31%     20.31% |       63895     38.99%     59.30% |       30080     18.35%     77.65% |       36629     22.35%    100.00%
system.ruby.L1Cache_Controller.NP.Ifetch::total       163886                      
system.ruby.L1Cache_Controller.NP.Store  |        6744      0.07%      0.07% |     9747460     99.24%     99.31% |       12095      0.12%     99.43% |       55628      0.57%    100.00%
system.ruby.L1Cache_Controller.NP.Store::total      9821927                      
system.ruby.L1Cache_Controller.NP.Inv    |        5648     16.10%     16.10% |       14845     42.30%     58.40% |        5124     14.60%     73.00% |        9474     27.00%    100.00%
system.ruby.L1Cache_Controller.NP.Inv::total        35091                      
system.ruby.L1Cache_Controller.I.Load    |        9375     26.00%     26.00% |        2513      6.97%     32.97% |       10970     30.42%     63.39% |       13203     36.61%    100.00%
system.ruby.L1Cache_Controller.I.Load::total        36061                      
system.ruby.L1Cache_Controller.I.Ifetch  |       30533     25.99%     25.99% |       30405     25.89%     51.88% |       29236     24.89%     76.77% |       27287     23.23%    100.00%
system.ruby.L1Cache_Controller.I.Ifetch::total       117461                      
system.ruby.L1Cache_Controller.I.Store   |        7667     22.37%     22.37% |       12687     37.02%     59.39% |        5551     16.20%     75.58% |        8369     24.42%    100.00%
system.ruby.L1Cache_Controller.I.Store::total        34274                      
system.ruby.L1Cache_Controller.I.L1_Replacement |        9524     21.66%     21.66% |       14818     33.71%     55.37% |        9101     20.70%     76.07% |       10520     23.93%    100.00%
system.ruby.L1Cache_Controller.I.L1_Replacement::total        43963                      
system.ruby.L1Cache_Controller.S.Load    |       97253     15.55%     15.55% |      110452     17.66%     33.21% |      135342     21.64%     54.85% |      282387     45.15%    100.00%
system.ruby.L1Cache_Controller.S.Load::total       625434                      
system.ruby.L1Cache_Controller.S.Ifetch  |     3024719      0.28%      0.28% |  1051608955     97.53%     97.81% |     4379410      0.41%     98.21% |    19263099      1.79%    100.00%
system.ruby.L1Cache_Controller.S.Ifetch::total   1078276183                      
system.ruby.L1Cache_Controller.S.Store   |        4282     38.60%     38.60% |        2325     20.96%     59.57% |        1849     16.67%     76.24% |        2636     23.76%    100.00%
system.ruby.L1Cache_Controller.S.Store::total        11092                      
system.ruby.L1Cache_Controller.S.Inv     |       40405     26.06%     26.06% |       34986     22.56%     48.62% |       40264     25.97%     74.59% |       39395     25.41%    100.00%
system.ruby.L1Cache_Controller.S.Inv::total       155050                      
system.ruby.L1Cache_Controller.S.L1_Replacement |       35068     19.24%     19.24% |       75019     41.15%     60.39% |       32835     18.01%     78.40% |       39382     21.60%    100.00%
system.ruby.L1Cache_Controller.S.L1_Replacement::total       182304                      
system.ruby.L1Cache_Controller.E.Load    |      108119      0.17%      0.17% |    61125437     98.82%     98.99% |      137758      0.22%     99.22% |      485536      0.78%    100.00%
system.ruby.L1Cache_Controller.E.Load::total     61856850                      
system.ruby.L1Cache_Controller.E.Store   |        4612      0.11%      0.11% |     4015488     97.89%     98.00% |        4784      0.12%     98.12% |       77256      1.88%    100.00%
system.ruby.L1Cache_Controller.E.Store::total      4102140                      
system.ruby.L1Cache_Controller.E.Inv     |        5311     23.95%     23.95% |        4281     19.30%     43.25% |        5253     23.69%     66.94% |        7333     33.06%    100.00%
system.ruby.L1Cache_Controller.E.Inv::total        22178                      
system.ruby.L1Cache_Controller.E.L1_Replacement |        5369      0.06%      0.06% |     9388782     99.45%     99.51% |        7967      0.08%     99.60% |       38152      0.40%    100.00%
system.ruby.L1Cache_Controller.E.L1_Replacement::total      9440270                      
system.ruby.L1Cache_Controller.E.Fwd_GETX |         450     25.38%     25.38% |         289     16.30%     41.68% |         884     49.86%     91.54% |         150      8.46%    100.00%
system.ruby.L1Cache_Controller.E.Fwd_GETX::total         1773                      
system.ruby.L1Cache_Controller.E.Fwd_GETS |        3031     37.68%     37.68% |         583      7.25%     44.93% |        3503     43.55%     88.49% |         926     11.51%    100.00%
system.ruby.L1Cache_Controller.E.Fwd_GETS::total         8043                      
system.ruby.L1Cache_Controller.M.Load    |      435685      2.72%      2.72% |    12678410     79.02%     81.73% |      606012      3.78%     85.51% |     2324631     14.49%    100.00%
system.ruby.L1Cache_Controller.M.Load::total     16044738                      
system.ruby.L1Cache_Controller.M.Store   |      485279      0.70%      0.70% |    66308902     94.98%     95.68% |      692277      0.99%     96.67% |     2326248      3.33%    100.00%
system.ruby.L1Cache_Controller.M.Store::total     69812706                      
system.ruby.L1Cache_Controller.M.Inv     |       11058     21.39%     21.39% |       20730     40.11%     61.50% |        8236     15.93%     77.43% |       11664     22.57%    100.00%
system.ruby.L1Cache_Controller.M.Inv::total        51688                      
system.ruby.L1Cache_Controller.M.L1_Replacement |        7777      0.06%      0.06% |    13755302     98.92%     98.97% |       13768      0.10%     99.07% |      129168      0.93%    100.00%
system.ruby.L1Cache_Controller.M.L1_Replacement::total     13906015                      
system.ruby.L1Cache_Controller.M.Fwd_GETX |         477     20.59%     20.59% |         477     20.59%     41.17% |         515     22.23%     63.40% |         848     36.60%    100.00%
system.ruby.L1Cache_Controller.M.Fwd_GETX::total         2317                      
system.ruby.L1Cache_Controller.M.Fwd_GETS |        4090     42.42%     42.42% |        1529     15.86%     58.28% |        1818     18.86%     77.13% |        2205     22.87%    100.00%
system.ruby.L1Cache_Controller.M.Fwd_GETS::total         9642                      
system.ruby.L1Cache_Controller.IS.Data_Exclusive |       18725      0.14%      0.14% |    13409400     98.78%     98.92% |       22438      0.17%     99.09% |      123810      0.91%    100.00%
system.ruby.L1Cache_Controller.IS.Data_Exclusive::total     13574373                      
system.ruby.L1Cache_Controller.IS.DataS_fromL1 |        4811     27.20%     27.20% |        1881     10.64%     37.84% |        3494     19.76%     57.60% |        7499     42.40%    100.00%
system.ruby.L1Cache_Controller.IS.DataS_fromL1::total        17685                      
system.ruby.L1Cache_Controller.IS.Data_all_Acks |       67898     21.70%     21.70% |      108098     34.56%     56.26% |       66053     21.12%     77.38% |       70776     22.62%    100.00%
system.ruby.L1Cache_Controller.IS.Data_all_Acks::total       312825                      
system.ruby.L1Cache_Controller.IM.Data   |          38      2.20%      2.20% |         746     43.22%     45.42% |         842     48.78%     94.21% |         100      5.79%    100.00%
system.ruby.L1Cache_Controller.IM.Data::total         1726                      
system.ruby.L1Cache_Controller.IM.Data_all_Acks |       14375      0.15%      0.15% |     9759401     99.04%     99.18% |       16805      0.17%     99.35% |       63899      0.65%    100.00%
system.ruby.L1Cache_Controller.IM.Data_all_Acks::total      9854480                      
system.ruby.L1Cache_Controller.SM.Inv    |           2     40.00%     40.00% |           0      0.00%     40.00% |           1     20.00%     60.00% |           2     40.00%    100.00%
system.ruby.L1Cache_Controller.SM.Inv::total            5                      
system.ruby.L1Cache_Controller.SM.Ack    |        9695     44.60%     44.60% |        4958     22.81%     67.41% |        3375     15.53%     82.94% |        3709     17.06%    100.00%
system.ruby.L1Cache_Controller.SM.Ack::total        21737                      
system.ruby.L1Cache_Controller.SM.Ack_all |        4318     33.70%     33.70% |        3071     23.97%     57.67% |        2690     20.99%     78.66% |        2734     21.34%    100.00%
system.ruby.L1Cache_Controller.SM.Ack_all::total        12813                      
system.ruby.L1Cache_Controller.M_I.WB_Ack |       13146      0.06%      0.06% |    23144084     99.13%     99.19% |       21735      0.09%     99.28% |      167320      0.72%    100.00%
system.ruby.L1Cache_Controller.M_I.WB_Ack::total     23346285                      
system.ruby.L2Cache_Controller.L1_GET_INSTR       281350      0.00%      0.00%
system.ruby.L2Cache_Controller.L1_GETS       13623775      0.00%      0.00%
system.ruby.L2Cache_Controller.L1_GETX        9856211      0.00%      0.00%
system.ruby.L2Cache_Controller.L1_UPGRADE        11092      0.00%      0.00%
system.ruby.L2Cache_Controller.L1_PUTX       23346285      0.00%      0.00%
system.ruby.L2Cache_Controller.L2_Replacement      4215870      0.00%      0.00%
system.ruby.L2Cache_Controller.L2_Replacement_clean      3323184      0.00%      0.00%
system.ruby.L2Cache_Controller.Mem_Data       7548252      0.00%      0.00%
system.ruby.L2Cache_Controller.Mem_Ack        7539056      0.00%      0.00%
system.ruby.L2Cache_Controller.WB_Data          61330      0.00%      0.00%
system.ruby.L2Cache_Controller.WB_Data_clean         8043      0.00%      0.00%
system.ruby.L2Cache_Controller.Ack              75866      0.00%      0.00%
system.ruby.L2Cache_Controller.Ack_all         112995      0.00%      0.00%
system.ruby.L2Cache_Controller.Unblock          17685      0.00%      0.00%
system.ruby.L2Cache_Controller.Exclusive_Unblock     23441666      0.00%      0.00%
system.ruby.L2Cache_Controller.MEM_Inv              4      0.00%      0.00%
system.ruby.L2Cache_Controller.NP.L1_GET_INSTR        86581      0.00%      0.00%
system.ruby.L2Cache_Controller.NP.L1_GETS      3265417      0.00%      0.00%
system.ruby.L2Cache_Controller.NP.L1_GETX      4196254      0.00%      0.00%
system.ruby.L2Cache_Controller.SS.L1_GET_INSTR       194757      0.00%      0.00%
system.ruby.L2Cache_Controller.SS.L1_GETS        31450      0.00%      0.00%
system.ruby.L2Cache_Controller.SS.L1_GETX         1726      0.00%      0.00%
system.ruby.L2Cache_Controller.SS.L1_UPGRADE        11087      0.00%      0.00%
system.ruby.L2Cache_Controller.SS.L2_Replacement          921      0.00%      0.00%
system.ruby.L2Cache_Controller.SS.L2_Replacement_clean        89896      0.00%      0.00%
system.ruby.L2Cache_Controller.M.L1_GET_INSTR            5      0.00%      0.00%
system.ruby.L2Cache_Controller.M.L1_GETS     10308970      0.00%      0.00%
system.ruby.L2Cache_Controller.M.L1_GETX      5654136      0.00%      0.00%
system.ruby.L2Cache_Controller.M.L2_Replacement      4209663      0.00%      0.00%
system.ruby.L2Cache_Controller.M.L2_Replacement_clean      3164710      0.00%      0.00%
system.ruby.L2Cache_Controller.MT.L1_GETS        17685      0.00%      0.00%
system.ruby.L2Cache_Controller.MT.L1_GETX         4090      0.00%      0.00%
system.ruby.L2Cache_Controller.MT.L1_PUTX     23346285      0.00%      0.00%
system.ruby.L2Cache_Controller.MT.L2_Replacement         5286      0.00%      0.00%
system.ruby.L2Cache_Controller.MT.L2_Replacement_clean        68578      0.00%      0.00%
system.ruby.L2Cache_Controller.MT.MEM_Inv            2      0.00%      0.00%
system.ruby.L2Cache_Controller.M_I.L1_GET_INSTR            3      0.00%      0.00%
system.ruby.L2Cache_Controller.M_I.L1_GETS            5      0.00%      0.00%
system.ruby.L2Cache_Controller.M_I.L1_GETX            3      0.00%      0.00%
system.ruby.L2Cache_Controller.M_I.Mem_Ack      7539056      0.00%      0.00%
system.ruby.L2Cache_Controller.MT_I.WB_Data         4836      0.00%      0.00%
system.ruby.L2Cache_Controller.MT_I.Ack_all          452      0.00%      0.00%
system.ruby.L2Cache_Controller.MT_I.MEM_Inv            2      0.00%      0.00%
system.ruby.L2Cache_Controller.MCT_I.WB_Data        46852      0.00%      0.00%
system.ruby.L2Cache_Controller.MCT_I.Ack_all        21726      0.00%      0.00%
system.ruby.L2Cache_Controller.I_I.Ack          74766      0.00%      0.00%
system.ruby.L2Cache_Controller.I_I.Ack_all        89896      0.00%      0.00%
system.ruby.L2Cache_Controller.S_I.Ack           1100      0.00%      0.00%
system.ruby.L2Cache_Controller.S_I.Ack_all          921      0.00%      0.00%
system.ruby.L2Cache_Controller.ISS.L1_GETS           14      0.00%      0.00%
system.ruby.L2Cache_Controller.ISS.Mem_Data      3265403      0.00%      0.00%
system.ruby.L2Cache_Controller.IS.L1_GET_INSTR            4      0.00%      0.00%
system.ruby.L2Cache_Controller.IS.Mem_Data        86595      0.00%      0.00%
system.ruby.L2Cache_Controller.IM.Mem_Data      4196254      0.00%      0.00%
system.ruby.L2Cache_Controller.SS_MB.L1_GETS           62      0.00%      0.00%
system.ruby.L2Cache_Controller.SS_MB.L1_UPGRADE            5      0.00%      0.00%
system.ruby.L2Cache_Controller.SS_MB.Exclusive_Unblock        12813      0.00%      0.00%
system.ruby.L2Cache_Controller.MT_MB.L1_GETS          170      0.00%      0.00%
system.ruby.L2Cache_Controller.MT_MB.L1_GETX            2      0.00%      0.00%
system.ruby.L2Cache_Controller.MT_MB.Exclusive_Unblock     23428853      0.00%      0.00%
system.ruby.L2Cache_Controller.MT_IIB.L1_GETS            2      0.00%      0.00%
system.ruby.L2Cache_Controller.MT_IIB.WB_Data         9621      0.00%      0.00%
system.ruby.L2Cache_Controller.MT_IIB.WB_Data_clean         8012      0.00%      0.00%
system.ruby.L2Cache_Controller.MT_IIB.Unblock           52      0.00%      0.00%
system.ruby.L2Cache_Controller.MT_IB.WB_Data           21      0.00%      0.00%
system.ruby.L2Cache_Controller.MT_IB.WB_Data_clean           31      0.00%      0.00%
system.ruby.L2Cache_Controller.MT_SB.Unblock        17633      0.00%      0.00%

---------- End Simulation Statistics   ----------
