
---------- Begin Simulation Statistics ----------
sim_seconds                                  1.914252                       # Number of seconds simulated
sim_ticks                                1914251629500                       # Number of ticks simulated
final_tick                               54143111781001                       # Number of ticks from beginning of simulation (restored from checkpoints and never reset)
sim_freq                                 1000000000000                       # Frequency of simulated ticks
host_inst_rate                                 102323                       # Simulator instruction rate (inst/s)
host_op_rate                                   152508                       # Simulator op (including micro ops) rate (op/s)
host_tick_rate                              270042363                       # Simulator tick rate (ticks/s)
host_mem_usage                                1823796                       # Number of bytes of host memory used
host_seconds                                  7088.71                       # Real time elapsed on the host
sim_insts                                   725337315                       # Number of instructions simulated
sim_ops                                    1081081503                       # Number of ops (including micro ops) simulated
system.voltage_domain.voltage                       1                       # Voltage in Volts
system.clk_domain.clock                          1000                       # Clock period in ticks
system.mem_ctrls0.bytes_read::ruby.dir_cntrl0     94960512                       # Number of bytes read from this memory
system.mem_ctrls0.bytes_read::total          94960512                       # Number of bytes read from this memory
system.mem_ctrls0.bytes_written::ruby.dir_cntrl0     43520576                       # Number of bytes written to this memory
system.mem_ctrls0.bytes_written::total       43520576                       # Number of bytes written to this memory
system.mem_ctrls0.num_reads::ruby.dir_cntrl0      1483758                       # Number of read requests responded to by this memory
system.mem_ctrls0.num_reads::total            1483758                       # Number of read requests responded to by this memory
system.mem_ctrls0.num_writes::ruby.dir_cntrl0       680009                       # Number of write requests responded to by this memory
system.mem_ctrls0.num_writes::total            680009                       # Number of write requests responded to by this memory
system.mem_ctrls0.bw_read::ruby.dir_cntrl0     49607121                       # Total read bandwidth from this memory (bytes/s)
system.mem_ctrls0.bw_read::total             49607121                       # Total read bandwidth from this memory (bytes/s)
system.mem_ctrls0.bw_write::ruby.dir_cntrl0     22735034                       # Write bandwidth from this memory (bytes/s)
system.mem_ctrls0.bw_write::total            22735034                       # Write bandwidth from this memory (bytes/s)
system.mem_ctrls0.bw_total::ruby.dir_cntrl0     72342155                       # Total bandwidth to/from this memory (bytes/s)
system.mem_ctrls0.bw_total::total            72342155                       # Total bandwidth to/from this memory (bytes/s)
system.mem_ctrls0.readReqs                    1483758                       # Number of read requests accepted
system.mem_ctrls0.writeReqs                    680009                       # Number of write requests accepted
system.mem_ctrls0.readBursts                  1483758                       # Number of DRAM read bursts, including those serviced by the write queue
system.mem_ctrls0.writeBursts                  680009                       # Number of DRAM write bursts, including those merged in the write queue
system.mem_ctrls0.bytesReadDRAM              94769600                       # Total number of bytes read from DRAM
system.mem_ctrls0.bytesReadWrQ                 190912                       # Total number of bytes read from write queue
system.mem_ctrls0.bytesWritten               43515840                       # Total number of bytes written to DRAM
system.mem_ctrls0.bytesReadSys               94960512                       # Total read bytes from the system interface side
system.mem_ctrls0.bytesWrittenSys            43520576                       # Total written bytes from the system interface side
system.mem_ctrls0.servicedByWrQ                  2983                       # Number of DRAM read bursts serviced by the write queue
system.mem_ctrls0.mergedWrBursts                   59                       # Number of DRAM write bursts merged with an existing one
system.mem_ctrls0.neitherReadNorWriteReqs            0                       # Number of requests that are neither read nor write
system.mem_ctrls0.perBankRdBursts::0            95580                       # Per bank write bursts
system.mem_ctrls0.perBankRdBursts::1            97520                       # Per bank write bursts
system.mem_ctrls0.perBankRdBursts::2            92572                       # Per bank write bursts
system.mem_ctrls0.perBankRdBursts::3            91350                       # Per bank write bursts
system.mem_ctrls0.perBankRdBursts::4            91075                       # Per bank write bursts
system.mem_ctrls0.perBankRdBursts::5            91819                       # Per bank write bursts
system.mem_ctrls0.perBankRdBursts::6            92522                       # Per bank write bursts
system.mem_ctrls0.perBankRdBursts::7            92751                       # Per bank write bursts
system.mem_ctrls0.perBankRdBursts::8            92964                       # Per bank write bursts
system.mem_ctrls0.perBankRdBursts::9            91068                       # Per bank write bursts
system.mem_ctrls0.perBankRdBursts::10           91987                       # Per bank write bursts
system.mem_ctrls0.perBankRdBursts::11           92431                       # Per bank write bursts
system.mem_ctrls0.perBankRdBursts::12           91892                       # Per bank write bursts
system.mem_ctrls0.perBankRdBursts::13           91842                       # Per bank write bursts
system.mem_ctrls0.perBankRdBursts::14           91372                       # Per bank write bursts
system.mem_ctrls0.perBankRdBursts::15           92030                       # Per bank write bursts
system.mem_ctrls0.perBankWrBursts::0            45697                       # Per bank write bursts
system.mem_ctrls0.perBankWrBursts::1            46329                       # Per bank write bursts
system.mem_ctrls0.perBankWrBursts::2            43398                       # Per bank write bursts
system.mem_ctrls0.perBankWrBursts::3            41230                       # Per bank write bursts
system.mem_ctrls0.perBankWrBursts::4            41624                       # Per bank write bursts
system.mem_ctrls0.perBankWrBursts::5            41865                       # Per bank write bursts
system.mem_ctrls0.perBankWrBursts::6            42141                       # Per bank write bursts
system.mem_ctrls0.perBankWrBursts::7            42489                       # Per bank write bursts
system.mem_ctrls0.perBankWrBursts::8            42771                       # Per bank write bursts
system.mem_ctrls0.perBankWrBursts::9            41439                       # Per bank write bursts
system.mem_ctrls0.perBankWrBursts::10           41686                       # Per bank write bursts
system.mem_ctrls0.perBankWrBursts::11           41406                       # Per bank write bursts
system.mem_ctrls0.perBankWrBursts::12           41903                       # Per bank write bursts
system.mem_ctrls0.perBankWrBursts::13           41641                       # Per bank write bursts
system.mem_ctrls0.perBankWrBursts::14           41904                       # Per bank write bursts
system.mem_ctrls0.perBankWrBursts::15           42412                       # Per bank write bursts
system.mem_ctrls0.numRdRetry                        0                       # Number of times read queue was full causing retry
system.mem_ctrls0.numWrRetry                        0                       # Number of times write queue was full causing retry
system.mem_ctrls0.totGap                 1914260250000                       # Total gap between requests
system.mem_ctrls0.readPktSize::0                    0                       # Read request sizes (log2)
system.mem_ctrls0.readPktSize::1                    0                       # Read request sizes (log2)
system.mem_ctrls0.readPktSize::2                    0                       # Read request sizes (log2)
system.mem_ctrls0.readPktSize::3                    0                       # Read request sizes (log2)
system.mem_ctrls0.readPktSize::4                    0                       # Read request sizes (log2)
system.mem_ctrls0.readPktSize::5                    0                       # Read request sizes (log2)
system.mem_ctrls0.readPktSize::6              1483758                       # Read request sizes (log2)
system.mem_ctrls0.writePktSize::0                   0                       # Write request sizes (log2)
system.mem_ctrls0.writePktSize::1                   0                       # Write request sizes (log2)
system.mem_ctrls0.writePktSize::2                   0                       # Write request sizes (log2)
system.mem_ctrls0.writePktSize::3                   0                       # Write request sizes (log2)
system.mem_ctrls0.writePktSize::4                   0                       # Write request sizes (log2)
system.mem_ctrls0.writePktSize::5                   0                       # Write request sizes (log2)
system.mem_ctrls0.writePktSize::6              680009                       # Write request sizes (log2)
system.mem_ctrls0.rdQLenPdf::0                1479473                       # What read queue length does an incoming req see
system.mem_ctrls0.rdQLenPdf::1                   1302                       # What read queue length does an incoming req see
system.mem_ctrls0.rdQLenPdf::2                      0                       # What read queue length does an incoming req see
system.mem_ctrls0.rdQLenPdf::3                      0                       # What read queue length does an incoming req see
system.mem_ctrls0.rdQLenPdf::4                      0                       # What read queue length does an incoming req see
system.mem_ctrls0.rdQLenPdf::5                      0                       # What read queue length does an incoming req see
system.mem_ctrls0.rdQLenPdf::6                      0                       # What read queue length does an incoming req see
system.mem_ctrls0.rdQLenPdf::7                      0                       # What read queue length does an incoming req see
system.mem_ctrls0.rdQLenPdf::8                      0                       # What read queue length does an incoming req see
system.mem_ctrls0.rdQLenPdf::9                      0                       # What read queue length does an incoming req see
system.mem_ctrls0.rdQLenPdf::10                     0                       # What read queue length does an incoming req see
system.mem_ctrls0.rdQLenPdf::11                     0                       # What read queue length does an incoming req see
system.mem_ctrls0.rdQLenPdf::12                     0                       # What read queue length does an incoming req see
system.mem_ctrls0.rdQLenPdf::13                     0                       # What read queue length does an incoming req see
system.mem_ctrls0.rdQLenPdf::14                     0                       # What read queue length does an incoming req see
system.mem_ctrls0.rdQLenPdf::15                     0                       # What read queue length does an incoming req see
system.mem_ctrls0.rdQLenPdf::16                     0                       # What read queue length does an incoming req see
system.mem_ctrls0.rdQLenPdf::17                     0                       # What read queue length does an incoming req see
system.mem_ctrls0.rdQLenPdf::18                     0                       # What read queue length does an incoming req see
system.mem_ctrls0.rdQLenPdf::19                     0                       # What read queue length does an incoming req see
system.mem_ctrls0.rdQLenPdf::20                     0                       # What read queue length does an incoming req see
system.mem_ctrls0.rdQLenPdf::21                     0                       # What read queue length does an incoming req see
system.mem_ctrls0.rdQLenPdf::22                     0                       # What read queue length does an incoming req see
system.mem_ctrls0.rdQLenPdf::23                     0                       # What read queue length does an incoming req see
system.mem_ctrls0.rdQLenPdf::24                     0                       # What read queue length does an incoming req see
system.mem_ctrls0.rdQLenPdf::25                     0                       # What read queue length does an incoming req see
system.mem_ctrls0.rdQLenPdf::26                     0                       # What read queue length does an incoming req see
system.mem_ctrls0.rdQLenPdf::27                     0                       # What read queue length does an incoming req see
system.mem_ctrls0.rdQLenPdf::28                     0                       # What read queue length does an incoming req see
system.mem_ctrls0.rdQLenPdf::29                     0                       # What read queue length does an incoming req see
system.mem_ctrls0.rdQLenPdf::30                     0                       # What read queue length does an incoming req see
system.mem_ctrls0.rdQLenPdf::31                     0                       # What read queue length does an incoming req see
system.mem_ctrls0.wrQLenPdf::0                      0                       # What write queue length does an incoming req see
system.mem_ctrls0.wrQLenPdf::1                      0                       # What write queue length does an incoming req see
system.mem_ctrls0.wrQLenPdf::2                      0                       # What write queue length does an incoming req see
system.mem_ctrls0.wrQLenPdf::3                      0                       # What write queue length does an incoming req see
system.mem_ctrls0.wrQLenPdf::4                      0                       # What write queue length does an incoming req see
system.mem_ctrls0.wrQLenPdf::5                      0                       # What write queue length does an incoming req see
system.mem_ctrls0.wrQLenPdf::6                      0                       # What write queue length does an incoming req see
system.mem_ctrls0.wrQLenPdf::7                      0                       # What write queue length does an incoming req see
system.mem_ctrls0.wrQLenPdf::8                      1                       # What write queue length does an incoming req see
system.mem_ctrls0.wrQLenPdf::9                      1                       # What write queue length does an incoming req see
system.mem_ctrls0.wrQLenPdf::10                     1                       # What write queue length does an incoming req see
system.mem_ctrls0.wrQLenPdf::11                     1                       # What write queue length does an incoming req see
system.mem_ctrls0.wrQLenPdf::12                     1                       # What write queue length does an incoming req see
system.mem_ctrls0.wrQLenPdf::13                     1                       # What write queue length does an incoming req see
system.mem_ctrls0.wrQLenPdf::14                     1                       # What write queue length does an incoming req see
system.mem_ctrls0.wrQLenPdf::15                  1411                       # What write queue length does an incoming req see
system.mem_ctrls0.wrQLenPdf::16                  1436                       # What write queue length does an incoming req see
system.mem_ctrls0.wrQLenPdf::17                 42242                       # What write queue length does an incoming req see
system.mem_ctrls0.wrQLenPdf::18                 42329                       # What write queue length does an incoming req see
system.mem_ctrls0.wrQLenPdf::19                 42328                       # What write queue length does an incoming req see
system.mem_ctrls0.wrQLenPdf::20                 42327                       # What write queue length does an incoming req see
system.mem_ctrls0.wrQLenPdf::21                 42328                       # What write queue length does an incoming req see
system.mem_ctrls0.wrQLenPdf::22                 42327                       # What write queue length does an incoming req see
system.mem_ctrls0.wrQLenPdf::23                 42327                       # What write queue length does an incoming req see
system.mem_ctrls0.wrQLenPdf::24                 42326                       # What write queue length does an incoming req see
system.mem_ctrls0.wrQLenPdf::25                 42321                       # What write queue length does an incoming req see
system.mem_ctrls0.wrQLenPdf::26                 42318                       # What write queue length does an incoming req see
system.mem_ctrls0.wrQLenPdf::27                 42322                       # What write queue length does an incoming req see
system.mem_ctrls0.wrQLenPdf::28                 42321                       # What write queue length does an incoming req see
system.mem_ctrls0.wrQLenPdf::29                 42323                       # What write queue length does an incoming req see
system.mem_ctrls0.wrQLenPdf::30                 42321                       # What write queue length does an incoming req see
system.mem_ctrls0.wrQLenPdf::31                 42318                       # What write queue length does an incoming req see
system.mem_ctrls0.wrQLenPdf::32                 42318                       # What write queue length does an incoming req see
system.mem_ctrls0.wrQLenPdf::33                     0                       # What write queue length does an incoming req see
system.mem_ctrls0.wrQLenPdf::34                     0                       # What write queue length does an incoming req see
system.mem_ctrls0.wrQLenPdf::35                     0                       # What write queue length does an incoming req see
system.mem_ctrls0.wrQLenPdf::36                     0                       # What write queue length does an incoming req see
system.mem_ctrls0.wrQLenPdf::37                     0                       # What write queue length does an incoming req see
system.mem_ctrls0.wrQLenPdf::38                     0                       # What write queue length does an incoming req see
system.mem_ctrls0.wrQLenPdf::39                     0                       # What write queue length does an incoming req see
system.mem_ctrls0.wrQLenPdf::40                     0                       # What write queue length does an incoming req see
system.mem_ctrls0.wrQLenPdf::41                     0                       # What write queue length does an incoming req see
system.mem_ctrls0.wrQLenPdf::42                     0                       # What write queue length does an incoming req see
system.mem_ctrls0.wrQLenPdf::43                     0                       # What write queue length does an incoming req see
system.mem_ctrls0.wrQLenPdf::44                     0                       # What write queue length does an incoming req see
system.mem_ctrls0.wrQLenPdf::45                     0                       # What write queue length does an incoming req see
system.mem_ctrls0.wrQLenPdf::46                     0                       # What write queue length does an incoming req see
system.mem_ctrls0.wrQLenPdf::47                     0                       # What write queue length does an incoming req see
system.mem_ctrls0.wrQLenPdf::48                     0                       # What write queue length does an incoming req see
system.mem_ctrls0.wrQLenPdf::49                     0                       # What write queue length does an incoming req see
system.mem_ctrls0.wrQLenPdf::50                     0                       # What write queue length does an incoming req see
system.mem_ctrls0.wrQLenPdf::51                     0                       # What write queue length does an incoming req see
system.mem_ctrls0.wrQLenPdf::52                     0                       # What write queue length does an incoming req see
system.mem_ctrls0.wrQLenPdf::53                     0                       # What write queue length does an incoming req see
system.mem_ctrls0.wrQLenPdf::54                     0                       # What write queue length does an incoming req see
system.mem_ctrls0.wrQLenPdf::55                     0                       # What write queue length does an incoming req see
system.mem_ctrls0.wrQLenPdf::56                     0                       # What write queue length does an incoming req see
system.mem_ctrls0.wrQLenPdf::57                     0                       # What write queue length does an incoming req see
system.mem_ctrls0.wrQLenPdf::58                     0                       # What write queue length does an incoming req see
system.mem_ctrls0.wrQLenPdf::59                     0                       # What write queue length does an incoming req see
system.mem_ctrls0.wrQLenPdf::60                     0                       # What write queue length does an incoming req see
system.mem_ctrls0.wrQLenPdf::61                     0                       # What write queue length does an incoming req see
system.mem_ctrls0.wrQLenPdf::62                     0                       # What write queue length does an incoming req see
system.mem_ctrls0.wrQLenPdf::63                     0                       # What write queue length does an incoming req see
system.mem_ctrls0.bytesPerActivate::samples      1055072                       # Bytes accessed per row activation
system.mem_ctrls0.bytesPerActivate::mean   131.067241                       # Bytes accessed per row activation
system.mem_ctrls0.bytesPerActivate::gmean    90.787994                       # Bytes accessed per row activation
system.mem_ctrls0.bytesPerActivate::stdev   170.402349                       # Bytes accessed per row activation
system.mem_ctrls0.bytesPerActivate::0-127       800785     75.90%     75.90% # Bytes accessed per row activation
system.mem_ctrls0.bytesPerActivate::128-255       113985     10.80%     86.70% # Bytes accessed per row activation
system.mem_ctrls0.bytesPerActivate::256-383        57281      5.43%     92.13% # Bytes accessed per row activation
system.mem_ctrls0.bytesPerActivate::384-511        26061      2.47%     94.60% # Bytes accessed per row activation
system.mem_ctrls0.bytesPerActivate::512-639        11455      1.09%     95.69% # Bytes accessed per row activation
system.mem_ctrls0.bytesPerActivate::640-767        10668      1.01%     96.70% # Bytes accessed per row activation
system.mem_ctrls0.bytesPerActivate::768-895        19022      1.80%     98.50% # Bytes accessed per row activation
system.mem_ctrls0.bytesPerActivate::896-1023        11644      1.10%     99.60% # Bytes accessed per row activation
system.mem_ctrls0.bytesPerActivate::1024-1151         4171      0.40%    100.00% # Bytes accessed per row activation
system.mem_ctrls0.bytesPerActivate::total      1055072                       # Bytes accessed per row activation
system.mem_ctrls0.rdPerTurnAround::samples        42318                       # Reads before turning the bus around for writes
system.mem_ctrls0.rdPerTurnAround::mean     35.081809                       # Reads before turning the bus around for writes
system.mem_ctrls0.rdPerTurnAround::gmean    24.997028                       # Reads before turning the bus around for writes
system.mem_ctrls0.rdPerTurnAround::stdev   154.739465                       # Reads before turning the bus around for writes
system.mem_ctrls0.rdPerTurnAround::0-255        42103     99.49%     99.49% # Reads before turning the bus around for writes
system.mem_ctrls0.rdPerTurnAround::256-511           28      0.07%     99.56% # Reads before turning the bus around for writes
system.mem_ctrls0.rdPerTurnAround::512-767           18      0.04%     99.60% # Reads before turning the bus around for writes
system.mem_ctrls0.rdPerTurnAround::768-1023           30      0.07%     99.67% # Reads before turning the bus around for writes
system.mem_ctrls0.rdPerTurnAround::1024-1279           24      0.06%     99.73% # Reads before turning the bus around for writes
system.mem_ctrls0.rdPerTurnAround::1280-1535           16      0.04%     99.77% # Reads before turning the bus around for writes
system.mem_ctrls0.rdPerTurnAround::1536-1791           14      0.03%     99.80% # Reads before turning the bus around for writes
system.mem_ctrls0.rdPerTurnAround::1792-2047           10      0.02%     99.82% # Reads before turning the bus around for writes
system.mem_ctrls0.rdPerTurnAround::2048-2303           11      0.03%     99.85% # Reads before turning the bus around for writes
system.mem_ctrls0.rdPerTurnAround::2304-2559            9      0.02%     99.87% # Reads before turning the bus around for writes
system.mem_ctrls0.rdPerTurnAround::2560-2815            5      0.01%     99.88% # Reads before turning the bus around for writes
system.mem_ctrls0.rdPerTurnAround::2816-3071            5      0.01%     99.89% # Reads before turning the bus around for writes
system.mem_ctrls0.rdPerTurnAround::3072-3327           12      0.03%     99.92% # Reads before turning the bus around for writes
system.mem_ctrls0.rdPerTurnAround::3328-3583            6      0.01%     99.94% # Reads before turning the bus around for writes
system.mem_ctrls0.rdPerTurnAround::3584-3839            5      0.01%     99.95% # Reads before turning the bus around for writes
system.mem_ctrls0.rdPerTurnAround::3840-4095           11      0.03%     99.97% # Reads before turning the bus around for writes
system.mem_ctrls0.rdPerTurnAround::4096-4351            3      0.01%     99.98% # Reads before turning the bus around for writes
system.mem_ctrls0.rdPerTurnAround::4352-4607            1      0.00%     99.98% # Reads before turning the bus around for writes
system.mem_ctrls0.rdPerTurnAround::4608-4863            4      0.01%     99.99% # Reads before turning the bus around for writes
system.mem_ctrls0.rdPerTurnAround::4864-5119            2      0.00%    100.00% # Reads before turning the bus around for writes
system.mem_ctrls0.rdPerTurnAround::5120-5375            1      0.00%    100.00% # Reads before turning the bus around for writes
system.mem_ctrls0.rdPerTurnAround::total        42318                       # Reads before turning the bus around for writes
system.mem_ctrls0.wrPerTurnAround::samples        42318                       # Writes before turning the bus around for reads
system.mem_ctrls0.wrPerTurnAround::mean     16.067276                       # Writes before turning the bus around for reads
system.mem_ctrls0.wrPerTurnAround::gmean    16.063516                       # Writes before turning the bus around for reads
system.mem_ctrls0.wrPerTurnAround::stdev     0.360695                       # Writes before turning the bus around for reads
system.mem_ctrls0.wrPerTurnAround::16           40893     96.63%     96.63% # Writes before turning the bus around for reads
system.mem_ctrls0.wrPerTurnAround::17               6      0.01%     96.65% # Writes before turning the bus around for reads
system.mem_ctrls0.wrPerTurnAround::18            1416      3.35%     99.99% # Writes before turning the bus around for reads
system.mem_ctrls0.wrPerTurnAround::19               3      0.01%    100.00% # Writes before turning the bus around for reads
system.mem_ctrls0.wrPerTurnAround::total        42318                       # Writes before turning the bus around for reads
system.mem_ctrls0.totQLat                 21981026229                       # Total ticks spent queuing
system.mem_ctrls0.totMemAccLat            49745557479                       # Total ticks spent from burst creation until serviced by the DRAM
system.mem_ctrls0.totBusLat                7403875000                       # Total ticks spent in databus transfers
system.mem_ctrls0.avgQLat                    14844.27                       # Average queueing delay per DRAM burst
system.mem_ctrls0.avgBusLat                   5000.00                       # Average bus latency per DRAM burst
system.mem_ctrls0.avgMemAccLat               33594.27                       # Average memory access latency per DRAM burst
system.mem_ctrls0.avgRdBW                       49.51                       # Average DRAM read bandwidth in MiByte/s
system.mem_ctrls0.avgWrBW                       22.73                       # Average achieved write bandwidth in MiByte/s
system.mem_ctrls0.avgRdBWSys                    49.61                       # Average system read bandwidth in MiByte/s
system.mem_ctrls0.avgWrBWSys                    22.74                       # Average system write bandwidth in MiByte/s
system.mem_ctrls0.peakBW                     12800.00                       # Theoretical peak bandwidth in MiByte/s
system.mem_ctrls0.busUtil                        0.56                       # Data bus utilization in percentage
system.mem_ctrls0.busUtilRead                    0.39                       # Data bus utilization in percentage for reads
system.mem_ctrls0.busUtilWrite                   0.18                       # Data bus utilization in percentage for writes
system.mem_ctrls0.avgRdQLen                      1.00                       # Average read queue length when enqueuing
system.mem_ctrls0.avgWrQLen                     25.46                       # Average write queue length when enqueuing
system.mem_ctrls0.readRowHits                  847084                       # Number of row buffer hits during reads
system.mem_ctrls0.writeRowHits                 258553                       # Number of row buffer hits during writes
system.mem_ctrls0.readRowHitRate                57.21                       # Row buffer hit rate for reads
system.mem_ctrls0.writeRowHitRate               38.03                       # Row buffer hit rate for writes
system.mem_ctrls0.avgGap                    884688.72                       # Average gap between requests
system.mem_ctrls0.pageHitRate                   51.17                       # Row buffer hit rate, read and write combined
system.mem_ctrls0_0.actEnergy              4038264720                       # Energy for activate commands per rank (pJ)
system.mem_ctrls0_0.preEnergy              2203418250                       # Energy for precharge commands per rank (pJ)
system.mem_ctrls0_0.readEnergy             5826241200                       # Energy for read commands per rank (pJ)
system.mem_ctrls0_0.writeEnergy            2234129040                       # Energy for write commands per rank (pJ)
system.mem_ctrls0_0.refreshEnergy        125273076240                       # Energy for refresh commands per rank (pJ)
system.mem_ctrls0_0.actBackEnergy        563214638205                       # Energy for active background per rank (pJ)
system.mem_ctrls0_0.preBackEnergy        656739725250                       # Energy for precharge background per rank (pJ)
system.mem_ctrls0_0.totalEnergy          1359529492905                       # Total energy per rank (pJ)
system.mem_ctrls0_0.averagePower           708.834243                       # Core power per rank (mW)
system.mem_ctrls0_0.memoryStateTime::IDLE 1087148346001                       # Time in different power states
system.mem_ctrls0_0.memoryStateTime::REF  63921260000                       # Time in different power states
system.mem_ctrls0_0.memoryStateTime::PRE_PDN            0                       # Time in different power states
system.mem_ctrls0_0.memoryStateTime::ACT 763188239249                       # Time in different power states
system.mem_ctrls0_0.memoryStateTime::ACT_PDN            0                       # Time in different power states
system.mem_ctrls0_1.actEnergy              3949601040                       # Energy for activate commands per rank (pJ)
system.mem_ctrls0_1.preEnergy              2155040250                       # Energy for precharge commands per rank (pJ)
system.mem_ctrls0_1.readEnergy             5753646600                       # Energy for read commands per rank (pJ)
system.mem_ctrls0_1.writeEnergy            2171849760                       # Energy for write commands per rank (pJ)
system.mem_ctrls0_1.refreshEnergy        125273076240                       # Energy for refresh commands per rank (pJ)
system.mem_ctrls0_1.actBackEnergy        561935317950                       # Energy for active background per rank (pJ)
system.mem_ctrls0_1.preBackEnergy        657861936000                       # Energy for precharge background per rank (pJ)
system.mem_ctrls0_1.totalEnergy          1359100467840                       # Total energy per rank (pJ)
system.mem_ctrls0_1.averagePower           708.610557                       # Core power per rank (mW)
system.mem_ctrls0_1.memoryStateTime::IDLE 1089195337001                       # Time in different power states
system.mem_ctrls0_1.memoryStateTime::REF  63921260000                       # Time in different power states
system.mem_ctrls0_1.memoryStateTime::PRE_PDN            0                       # Time in different power states
system.mem_ctrls0_1.memoryStateTime::ACT 761140737999                       # Time in different power states
system.mem_ctrls0_1.memoryStateTime::ACT_PDN            0                       # Time in different power states
system.mem_ctrls1.bytes_read::ruby.dir_cntrl1     94722944                       # Number of bytes read from this memory
system.mem_ctrls1.bytes_read::total          94722944                       # Number of bytes read from this memory
system.mem_ctrls1.bytes_written::ruby.dir_cntrl1     43276352                       # Number of bytes written to this memory
system.mem_ctrls1.bytes_written::total       43276352                       # Number of bytes written to this memory
system.mem_ctrls1.num_reads::ruby.dir_cntrl1      1480046                       # Number of read requests responded to by this memory
system.mem_ctrls1.num_reads::total            1480046                       # Number of read requests responded to by this memory
system.mem_ctrls1.num_writes::ruby.dir_cntrl1       676193                       # Number of write requests responded to by this memory
system.mem_ctrls1.num_writes::total            676193                       # Number of write requests responded to by this memory
system.mem_ctrls1.bw_read::ruby.dir_cntrl1     49483016                       # Total read bandwidth from this memory (bytes/s)
system.mem_ctrls1.bw_read::total             49483016                       # Total read bandwidth from this memory (bytes/s)
system.mem_ctrls1.bw_write::ruby.dir_cntrl1     22607452                       # Write bandwidth from this memory (bytes/s)
system.mem_ctrls1.bw_write::total            22607452                       # Write bandwidth from this memory (bytes/s)
system.mem_ctrls1.bw_total::ruby.dir_cntrl1     72090468                       # Total bandwidth to/from this memory (bytes/s)
system.mem_ctrls1.bw_total::total            72090468                       # Total bandwidth to/from this memory (bytes/s)
system.mem_ctrls1.readReqs                    1480046                       # Number of read requests accepted
system.mem_ctrls1.writeReqs                    676193                       # Number of write requests accepted
system.mem_ctrls1.readBursts                  1480046                       # Number of DRAM read bursts, including those serviced by the write queue
system.mem_ctrls1.writeBursts                  676193                       # Number of DRAM write bursts, including those merged in the write queue
system.mem_ctrls1.bytesReadDRAM              94566720                       # Total number of bytes read from DRAM
system.mem_ctrls1.bytesReadWrQ                 156224                       # Total number of bytes read from write queue
system.mem_ctrls1.bytesWritten               43244672                       # Total number of bytes written to DRAM
system.mem_ctrls1.bytesReadSys               94722944                       # Total read bytes from the system interface side
system.mem_ctrls1.bytesWrittenSys            43276352                       # Total written bytes from the system interface side
system.mem_ctrls1.servicedByWrQ                  2441                       # Number of DRAM read bursts serviced by the write queue
system.mem_ctrls1.mergedWrBursts                  471                       # Number of DRAM write bursts merged with an existing one
system.mem_ctrls1.neitherReadNorWriteReqs            0                       # Number of requests that are neither read nor write
system.mem_ctrls1.perBankRdBursts::0            95717                       # Per bank write bursts
system.mem_ctrls1.perBankRdBursts::1            95536                       # Per bank write bursts
system.mem_ctrls1.perBankRdBursts::2            91661                       # Per bank write bursts
system.mem_ctrls1.perBankRdBursts::3            91062                       # Per bank write bursts
system.mem_ctrls1.perBankRdBursts::4            90885                       # Per bank write bursts
system.mem_ctrls1.perBankRdBursts::5            91738                       # Per bank write bursts
system.mem_ctrls1.perBankRdBursts::6            92260                       # Per bank write bursts
system.mem_ctrls1.perBankRdBursts::7            92746                       # Per bank write bursts
system.mem_ctrls1.perBankRdBursts::8            92991                       # Per bank write bursts
system.mem_ctrls1.perBankRdBursts::9            91177                       # Per bank write bursts
system.mem_ctrls1.perBankRdBursts::10           91815                       # Per bank write bursts
system.mem_ctrls1.perBankRdBursts::11           92856                       # Per bank write bursts
system.mem_ctrls1.perBankRdBursts::12           91969                       # Per bank write bursts
system.mem_ctrls1.perBankRdBursts::13           91636                       # Per bank write bursts
system.mem_ctrls1.perBankRdBursts::14           91729                       # Per bank write bursts
system.mem_ctrls1.perBankRdBursts::15           91827                       # Per bank write bursts
system.mem_ctrls1.perBankWrBursts::0            45572                       # Per bank write bursts
system.mem_ctrls1.perBankWrBursts::1            44374                       # Per bank write bursts
system.mem_ctrls1.perBankWrBursts::2            42186                       # Per bank write bursts
system.mem_ctrls1.perBankWrBursts::3            41224                       # Per bank write bursts
system.mem_ctrls1.perBankWrBursts::4            41368                       # Per bank write bursts
system.mem_ctrls1.perBankWrBursts::5            41869                       # Per bank write bursts
system.mem_ctrls1.perBankWrBursts::6            42007                       # Per bank write bursts
system.mem_ctrls1.perBankWrBursts::7            42407                       # Per bank write bursts
system.mem_ctrls1.perBankWrBursts::8            42763                       # Per bank write bursts
system.mem_ctrls1.perBankWrBursts::9            41448                       # Per bank write bursts
system.mem_ctrls1.perBankWrBursts::10           41667                       # Per bank write bursts
system.mem_ctrls1.perBankWrBursts::11           41436                       # Per bank write bursts
system.mem_ctrls1.perBankWrBursts::12           41677                       # Per bank write bursts
system.mem_ctrls1.perBankWrBursts::13           41620                       # Per bank write bursts
system.mem_ctrls1.perBankWrBursts::14           41848                       # Per bank write bursts
system.mem_ctrls1.perBankWrBursts::15           42232                       # Per bank write bursts
system.mem_ctrls1.numRdRetry                        0                       # Number of times read queue was full causing retry
system.mem_ctrls1.numWrRetry                        0                       # Number of times write queue was full causing retry
system.mem_ctrls1.totGap                 1914242976500                       # Total gap between requests
system.mem_ctrls1.readPktSize::0                    0                       # Read request sizes (log2)
system.mem_ctrls1.readPktSize::1                    0                       # Read request sizes (log2)
system.mem_ctrls1.readPktSize::2                    0                       # Read request sizes (log2)
system.mem_ctrls1.readPktSize::3                    0                       # Read request sizes (log2)
system.mem_ctrls1.readPktSize::4                    0                       # Read request sizes (log2)
system.mem_ctrls1.readPktSize::5                    0                       # Read request sizes (log2)
system.mem_ctrls1.readPktSize::6              1480046                       # Read request sizes (log2)
system.mem_ctrls1.writePktSize::0                   0                       # Write request sizes (log2)
system.mem_ctrls1.writePktSize::1                   0                       # Write request sizes (log2)
system.mem_ctrls1.writePktSize::2                   0                       # Write request sizes (log2)
system.mem_ctrls1.writePktSize::3                   0                       # Write request sizes (log2)
system.mem_ctrls1.writePktSize::4                   0                       # Write request sizes (log2)
system.mem_ctrls1.writePktSize::5                   0                       # Write request sizes (log2)
system.mem_ctrls1.writePktSize::6              676193                       # Write request sizes (log2)
system.mem_ctrls1.rdQLenPdf::0                1476484                       # What read queue length does an incoming req see
system.mem_ctrls1.rdQLenPdf::1                   1121                       # What read queue length does an incoming req see
system.mem_ctrls1.rdQLenPdf::2                      0                       # What read queue length does an incoming req see
system.mem_ctrls1.rdQLenPdf::3                      0                       # What read queue length does an incoming req see
system.mem_ctrls1.rdQLenPdf::4                      0                       # What read queue length does an incoming req see
system.mem_ctrls1.rdQLenPdf::5                      0                       # What read queue length does an incoming req see
system.mem_ctrls1.rdQLenPdf::6                      0                       # What read queue length does an incoming req see
system.mem_ctrls1.rdQLenPdf::7                      0                       # What read queue length does an incoming req see
system.mem_ctrls1.rdQLenPdf::8                      0                       # What read queue length does an incoming req see
system.mem_ctrls1.rdQLenPdf::9                      0                       # What read queue length does an incoming req see
system.mem_ctrls1.rdQLenPdf::10                     0                       # What read queue length does an incoming req see
system.mem_ctrls1.rdQLenPdf::11                     0                       # What read queue length does an incoming req see
system.mem_ctrls1.rdQLenPdf::12                     0                       # What read queue length does an incoming req see
system.mem_ctrls1.rdQLenPdf::13                     0                       # What read queue length does an incoming req see
system.mem_ctrls1.rdQLenPdf::14                     0                       # What read queue length does an incoming req see
system.mem_ctrls1.rdQLenPdf::15                     0                       # What read queue length does an incoming req see
system.mem_ctrls1.rdQLenPdf::16                     0                       # What read queue length does an incoming req see
system.mem_ctrls1.rdQLenPdf::17                     0                       # What read queue length does an incoming req see
system.mem_ctrls1.rdQLenPdf::18                     0                       # What read queue length does an incoming req see
system.mem_ctrls1.rdQLenPdf::19                     0                       # What read queue length does an incoming req see
system.mem_ctrls1.rdQLenPdf::20                     0                       # What read queue length does an incoming req see
system.mem_ctrls1.rdQLenPdf::21                     0                       # What read queue length does an incoming req see
system.mem_ctrls1.rdQLenPdf::22                     0                       # What read queue length does an incoming req see
system.mem_ctrls1.rdQLenPdf::23                     0                       # What read queue length does an incoming req see
system.mem_ctrls1.rdQLenPdf::24                     0                       # What read queue length does an incoming req see
system.mem_ctrls1.rdQLenPdf::25                     0                       # What read queue length does an incoming req see
system.mem_ctrls1.rdQLenPdf::26                     0                       # What read queue length does an incoming req see
system.mem_ctrls1.rdQLenPdf::27                     0                       # What read queue length does an incoming req see
system.mem_ctrls1.rdQLenPdf::28                     0                       # What read queue length does an incoming req see
system.mem_ctrls1.rdQLenPdf::29                     0                       # What read queue length does an incoming req see
system.mem_ctrls1.rdQLenPdf::30                     0                       # What read queue length does an incoming req see
system.mem_ctrls1.rdQLenPdf::31                     0                       # What read queue length does an incoming req see
system.mem_ctrls1.wrQLenPdf::0                      0                       # What write queue length does an incoming req see
system.mem_ctrls1.wrQLenPdf::1                      0                       # What write queue length does an incoming req see
system.mem_ctrls1.wrQLenPdf::2                      0                       # What write queue length does an incoming req see
system.mem_ctrls1.wrQLenPdf::3                      0                       # What write queue length does an incoming req see
system.mem_ctrls1.wrQLenPdf::4                      0                       # What write queue length does an incoming req see
system.mem_ctrls1.wrQLenPdf::5                      0                       # What write queue length does an incoming req see
system.mem_ctrls1.wrQLenPdf::6                      0                       # What write queue length does an incoming req see
system.mem_ctrls1.wrQLenPdf::7                      0                       # What write queue length does an incoming req see
system.mem_ctrls1.wrQLenPdf::8                      1                       # What write queue length does an incoming req see
system.mem_ctrls1.wrQLenPdf::9                      1                       # What write queue length does an incoming req see
system.mem_ctrls1.wrQLenPdf::10                     1                       # What write queue length does an incoming req see
system.mem_ctrls1.wrQLenPdf::11                     1                       # What write queue length does an incoming req see
system.mem_ctrls1.wrQLenPdf::12                     1                       # What write queue length does an incoming req see
system.mem_ctrls1.wrQLenPdf::13                     1                       # What write queue length does an incoming req see
system.mem_ctrls1.wrQLenPdf::14                     1                       # What write queue length does an incoming req see
system.mem_ctrls1.wrQLenPdf::15                  1150                       # What write queue length does an incoming req see
system.mem_ctrls1.wrQLenPdf::16                  1167                       # What write queue length does an incoming req see
system.mem_ctrls1.wrQLenPdf::17                 42023                       # What write queue length does an incoming req see
system.mem_ctrls1.wrQLenPdf::18                 42099                       # What write queue length does an incoming req see
system.mem_ctrls1.wrQLenPdf::19                 42096                       # What write queue length does an incoming req see
system.mem_ctrls1.wrQLenPdf::20                 42091                       # What write queue length does an incoming req see
system.mem_ctrls1.wrQLenPdf::21                 42093                       # What write queue length does an incoming req see
system.mem_ctrls1.wrQLenPdf::22                 42090                       # What write queue length does an incoming req see
system.mem_ctrls1.wrQLenPdf::23                 42092                       # What write queue length does an incoming req see
system.mem_ctrls1.wrQLenPdf::24                 42090                       # What write queue length does an incoming req see
system.mem_ctrls1.wrQLenPdf::25                 42091                       # What write queue length does an incoming req see
system.mem_ctrls1.wrQLenPdf::26                 42095                       # What write queue length does an incoming req see
system.mem_ctrls1.wrQLenPdf::27                 42091                       # What write queue length does an incoming req see
system.mem_ctrls1.wrQLenPdf::28                 42093                       # What write queue length does an incoming req see
system.mem_ctrls1.wrQLenPdf::29                 42091                       # What write queue length does an incoming req see
system.mem_ctrls1.wrQLenPdf::30                 42088                       # What write queue length does an incoming req see
system.mem_ctrls1.wrQLenPdf::31                 42088                       # What write queue length does an incoming req see
system.mem_ctrls1.wrQLenPdf::32                 42086                       # What write queue length does an incoming req see
system.mem_ctrls1.wrQLenPdf::33                     1                       # What write queue length does an incoming req see
system.mem_ctrls1.wrQLenPdf::34                     0                       # What write queue length does an incoming req see
system.mem_ctrls1.wrQLenPdf::35                     0                       # What write queue length does an incoming req see
system.mem_ctrls1.wrQLenPdf::36                     0                       # What write queue length does an incoming req see
system.mem_ctrls1.wrQLenPdf::37                     0                       # What write queue length does an incoming req see
system.mem_ctrls1.wrQLenPdf::38                     0                       # What write queue length does an incoming req see
system.mem_ctrls1.wrQLenPdf::39                     0                       # What write queue length does an incoming req see
system.mem_ctrls1.wrQLenPdf::40                     0                       # What write queue length does an incoming req see
system.mem_ctrls1.wrQLenPdf::41                     0                       # What write queue length does an incoming req see
system.mem_ctrls1.wrQLenPdf::42                     0                       # What write queue length does an incoming req see
system.mem_ctrls1.wrQLenPdf::43                     0                       # What write queue length does an incoming req see
system.mem_ctrls1.wrQLenPdf::44                     0                       # What write queue length does an incoming req see
system.mem_ctrls1.wrQLenPdf::45                     0                       # What write queue length does an incoming req see
system.mem_ctrls1.wrQLenPdf::46                     0                       # What write queue length does an incoming req see
system.mem_ctrls1.wrQLenPdf::47                     0                       # What write queue length does an incoming req see
system.mem_ctrls1.wrQLenPdf::48                     0                       # What write queue length does an incoming req see
system.mem_ctrls1.wrQLenPdf::49                     0                       # What write queue length does an incoming req see
system.mem_ctrls1.wrQLenPdf::50                     0                       # What write queue length does an incoming req see
system.mem_ctrls1.wrQLenPdf::51                     0                       # What write queue length does an incoming req see
system.mem_ctrls1.wrQLenPdf::52                     0                       # What write queue length does an incoming req see
system.mem_ctrls1.wrQLenPdf::53                     0                       # What write queue length does an incoming req see
system.mem_ctrls1.wrQLenPdf::54                     0                       # What write queue length does an incoming req see
system.mem_ctrls1.wrQLenPdf::55                     0                       # What write queue length does an incoming req see
system.mem_ctrls1.wrQLenPdf::56                     0                       # What write queue length does an incoming req see
system.mem_ctrls1.wrQLenPdf::57                     0                       # What write queue length does an incoming req see
system.mem_ctrls1.wrQLenPdf::58                     0                       # What write queue length does an incoming req see
system.mem_ctrls1.wrQLenPdf::59                     0                       # What write queue length does an incoming req see
system.mem_ctrls1.wrQLenPdf::60                     0                       # What write queue length does an incoming req see
system.mem_ctrls1.wrQLenPdf::61                     0                       # What write queue length does an incoming req see
system.mem_ctrls1.wrQLenPdf::62                     0                       # What write queue length does an incoming req see
system.mem_ctrls1.wrQLenPdf::63                     0                       # What write queue length does an incoming req see
system.mem_ctrls1.bytesPerActivate::samples      1049813                       # Bytes accessed per row activation
system.mem_ctrls1.bytesPerActivate::mean   131.272385                       # Bytes accessed per row activation
system.mem_ctrls1.bytesPerActivate::gmean    90.783530                       # Bytes accessed per row activation
system.mem_ctrls1.bytesPerActivate::stdev   171.152572                       # Bytes accessed per row activation
system.mem_ctrls1.bytesPerActivate::0-127       797569     75.97%     75.97% # Bytes accessed per row activation
system.mem_ctrls1.bytesPerActivate::128-255       112251     10.69%     86.66% # Bytes accessed per row activation
system.mem_ctrls1.bytesPerActivate::256-383        57370      5.46%     92.13% # Bytes accessed per row activation
system.mem_ctrls1.bytesPerActivate::384-511        25456      2.42%     94.55% # Bytes accessed per row activation
system.mem_ctrls1.bytesPerActivate::512-639        11471      1.09%     95.65% # Bytes accessed per row activation
system.mem_ctrls1.bytesPerActivate::640-767        10696      1.02%     96.67% # Bytes accessed per row activation
system.mem_ctrls1.bytesPerActivate::768-895        19036      1.81%     98.48% # Bytes accessed per row activation
system.mem_ctrls1.bytesPerActivate::896-1023        11439      1.09%     99.57% # Bytes accessed per row activation
system.mem_ctrls1.bytesPerActivate::1024-1151         4525      0.43%    100.00% # Bytes accessed per row activation
system.mem_ctrls1.bytesPerActivate::total      1049813                       # Bytes accessed per row activation
system.mem_ctrls1.rdPerTurnAround::samples        42086                       # Reads before turning the bus around for writes
system.mem_ctrls1.rdPerTurnAround::mean     35.199924                       # Reads before turning the bus around for writes
system.mem_ctrls1.rdPerTurnAround::gmean    24.837380                       # Reads before turning the bus around for writes
system.mem_ctrls1.rdPerTurnAround::stdev   205.467975                       # Reads before turning the bus around for writes
system.mem_ctrls1.rdPerTurnAround::0-511        41981     99.75%     99.75% # Reads before turning the bus around for writes
system.mem_ctrls1.rdPerTurnAround::512-1023           15      0.04%     99.79% # Reads before turning the bus around for writes
system.mem_ctrls1.rdPerTurnAround::1024-1535           10      0.02%     99.81% # Reads before turning the bus around for writes
system.mem_ctrls1.rdPerTurnAround::1536-2047            5      0.01%     99.82% # Reads before turning the bus around for writes
system.mem_ctrls1.rdPerTurnAround::2048-2559            9      0.02%     99.84% # Reads before turning the bus around for writes
system.mem_ctrls1.rdPerTurnAround::2560-3071           10      0.02%     99.87% # Reads before turning the bus around for writes
system.mem_ctrls1.rdPerTurnAround::3072-3583            7      0.02%     99.88% # Reads before turning the bus around for writes
system.mem_ctrls1.rdPerTurnAround::3584-4095            4      0.01%     99.89% # Reads before turning the bus around for writes
system.mem_ctrls1.rdPerTurnAround::4096-4607            6      0.01%     99.91% # Reads before turning the bus around for writes
system.mem_ctrls1.rdPerTurnAround::4608-5119            6      0.01%     99.92% # Reads before turning the bus around for writes
system.mem_ctrls1.rdPerTurnAround::5120-5631           13      0.03%     99.95% # Reads before turning the bus around for writes
system.mem_ctrls1.rdPerTurnAround::5632-6143            7      0.02%     99.97% # Reads before turning the bus around for writes
system.mem_ctrls1.rdPerTurnAround::6144-6655            6      0.01%     99.98% # Reads before turning the bus around for writes
system.mem_ctrls1.rdPerTurnAround::6656-7167            6      0.01%    100.00% # Reads before turning the bus around for writes
system.mem_ctrls1.rdPerTurnAround::8704-9215            1      0.00%    100.00% # Reads before turning the bus around for writes
system.mem_ctrls1.rdPerTurnAround::total        42086                       # Reads before turning the bus around for writes
system.mem_ctrls1.wrPerTurnAround::samples        42086                       # Writes before turning the bus around for reads
system.mem_ctrls1.wrPerTurnAround::mean     16.055173                       # Writes before turning the bus around for reads
system.mem_ctrls1.wrPerTurnAround::gmean    16.052067                       # Writes before turning the bus around for reads
system.mem_ctrls1.wrPerTurnAround::stdev     0.327863                       # Writes before turning the bus around for reads
system.mem_ctrls1.wrPerTurnAround::16           40924     97.24%     97.24% # Writes before turning the bus around for reads
system.mem_ctrls1.wrPerTurnAround::17               7      0.02%     97.26% # Writes before turning the bus around for reads
system.mem_ctrls1.wrPerTurnAround::18            1150      2.73%     99.99% # Writes before turning the bus around for reads
system.mem_ctrls1.wrPerTurnAround::19               5      0.01%    100.00% # Writes before turning the bus around for reads
system.mem_ctrls1.wrPerTurnAround::total        42086                       # Writes before turning the bus around for reads
system.mem_ctrls1.totQLat                 21815803731                       # Total ticks spent queuing
system.mem_ctrls1.totMemAccLat            49520897481                       # Total ticks spent from burst creation until serviced by the DRAM
system.mem_ctrls1.totBusLat                7388025000                       # Total ticks spent in databus transfers
system.mem_ctrls1.avgQLat                    14764.30                       # Average queueing delay per DRAM burst
system.mem_ctrls1.avgBusLat                   5000.00                       # Average bus latency per DRAM burst
system.mem_ctrls1.avgMemAccLat               33514.30                       # Average memory access latency per DRAM burst
system.mem_ctrls1.avgRdBW                       49.40                       # Average DRAM read bandwidth in MiByte/s
system.mem_ctrls1.avgWrBW                       22.59                       # Average achieved write bandwidth in MiByte/s
system.mem_ctrls1.avgRdBWSys                    49.48                       # Average system read bandwidth in MiByte/s
system.mem_ctrls1.avgWrBWSys                    22.61                       # Average system write bandwidth in MiByte/s
system.mem_ctrls1.peakBW                     12800.00                       # Theoretical peak bandwidth in MiByte/s
system.mem_ctrls1.busUtil                        0.56                       # Data bus utilization in percentage
system.mem_ctrls1.busUtilRead                    0.39                       # Data bus utilization in percentage for reads
system.mem_ctrls1.busUtilWrite                   0.18                       # Data bus utilization in percentage for writes
system.mem_ctrls1.avgRdQLen                      1.00                       # Average read queue length when enqueuing
system.mem_ctrls1.avgWrQLen                     25.43                       # Average write queue length when enqueuing
system.mem_ctrls1.readRowHits                  845321                       # Number of row buffer hits during reads
system.mem_ctrls1.writeRowHits                 258170                       # Number of row buffer hits during writes
system.mem_ctrls1.readRowHitRate                57.21                       # Row buffer hit rate for reads
system.mem_ctrls1.writeRowHitRate               38.21                       # Row buffer hit rate for writes
system.mem_ctrls1.avgGap                    887769.39                       # Average gap between requests
system.mem_ctrls1.pageHitRate                   51.25                       # Row buffer hit rate, read and write combined
system.mem_ctrls1_0.actEnergy              4005938160                       # Energy for activate commands per rank (pJ)
system.mem_ctrls1_0.preEnergy              2185779750                       # Energy for precharge commands per rank (pJ)
system.mem_ctrls1_0.readEnergy             5798215800                       # Energy for read commands per rank (pJ)
system.mem_ctrls1_0.writeEnergy            2209725360                       # Energy for write commands per rank (pJ)
system.mem_ctrls1_0.refreshEnergy        125273076240                       # Energy for refresh commands per rank (pJ)
system.mem_ctrls1_0.actBackEnergy        562145371785                       # Energy for active background per rank (pJ)
system.mem_ctrls1_0.preBackEnergy        657677678250                       # Energy for precharge background per rank (pJ)
system.mem_ctrls1_0.totalEnergy          1359295785345                       # Total energy per rank (pJ)
system.mem_ctrls1_0.averagePower           708.712393                       # Core power per rank (mW)
system.mem_ctrls1_0.memoryStateTime::IDLE 1088699071751                       # Time in different power states
system.mem_ctrls1_0.memoryStateTime::REF  63921260000                       # Time in different power states
system.mem_ctrls1_0.memoryStateTime::PRE_PDN            0                       # Time in different power states
system.mem_ctrls1_0.memoryStateTime::ACT 761630889499                       # Time in different power states
system.mem_ctrls1_0.memoryStateTime::ACT_PDN            0                       # Time in different power states
system.mem_ctrls1_1.actEnergy              3942184680                       # Energy for activate commands per rank (pJ)
system.mem_ctrls1_1.preEnergy              2150993625                       # Energy for precharge commands per rank (pJ)
system.mem_ctrls1_1.readEnergy             5757063000                       # Energy for read commands per rank (pJ)
system.mem_ctrls1_1.writeEnergy            2168797680                       # Energy for write commands per rank (pJ)
system.mem_ctrls1_1.refreshEnergy        125273076240                       # Energy for refresh commands per rank (pJ)
system.mem_ctrls1_1.actBackEnergy        560434586895                       # Energy for active background per rank (pJ)
system.mem_ctrls1_1.preBackEnergy        659178366750                       # Energy for precharge background per rank (pJ)
system.mem_ctrls1_1.totalEnergy          1358905068870                       # Total energy per rank (pJ)
system.mem_ctrls1_1.averagePower           708.508680                       # Core power per rank (mW)
system.mem_ctrls1_1.memoryStateTime::IDLE 1091399262000                       # Time in different power states
system.mem_ctrls1_1.memoryStateTime::REF  63921260000                       # Time in different power states
system.mem_ctrls1_1.memoryStateTime::PRE_PDN            0                       # Time in different power states
system.mem_ctrls1_1.memoryStateTime::ACT 758936813000                       # Time in different power states
system.mem_ctrls1_1.memoryStateTime::ACT_PDN            0                       # Time in different power states
system.mem_ctrls2.bytes_read::ruby.dir_cntrl2     94940928                       # Number of bytes read from this memory
system.mem_ctrls2.bytes_read::total          94940928                       # Number of bytes read from this memory
system.mem_ctrls2.bytes_written::ruby.dir_cntrl2     43270144                       # Number of bytes written to this memory
system.mem_ctrls2.bytes_written::total       43270144                       # Number of bytes written to this memory
system.mem_ctrls2.num_reads::ruby.dir_cntrl2      1483452                       # Number of read requests responded to by this memory
system.mem_ctrls2.num_reads::total            1483452                       # Number of read requests responded to by this memory
system.mem_ctrls2.num_writes::ruby.dir_cntrl2       676096                       # Number of write requests responded to by this memory
system.mem_ctrls2.num_writes::total            676096                       # Number of write requests responded to by this memory
system.mem_ctrls2.bw_read::ruby.dir_cntrl2     49596890                       # Total read bandwidth from this memory (bytes/s)
system.mem_ctrls2.bw_read::total             49596890                       # Total read bandwidth from this memory (bytes/s)
system.mem_ctrls2.bw_write::ruby.dir_cntrl2     22604209                       # Write bandwidth from this memory (bytes/s)
system.mem_ctrls2.bw_write::total            22604209                       # Write bandwidth from this memory (bytes/s)
system.mem_ctrls2.bw_total::ruby.dir_cntrl2     72201099                       # Total bandwidth to/from this memory (bytes/s)
system.mem_ctrls2.bw_total::total            72201099                       # Total bandwidth to/from this memory (bytes/s)
system.mem_ctrls2.readReqs                    1483452                       # Number of read requests accepted
system.mem_ctrls2.writeReqs                    676096                       # Number of write requests accepted
system.mem_ctrls2.readBursts                  1483452                       # Number of DRAM read bursts, including those serviced by the write queue
system.mem_ctrls2.writeBursts                  676096                       # Number of DRAM write bursts, including those merged in the write queue
system.mem_ctrls2.bytesReadDRAM              94802880                       # Total number of bytes read from DRAM
system.mem_ctrls2.bytesReadWrQ                 138048                       # Total number of bytes read from write queue
system.mem_ctrls2.bytesWritten               43214848                       # Total number of bytes written to DRAM
system.mem_ctrls2.bytesReadSys               94940928                       # Total read bytes from the system interface side
system.mem_ctrls2.bytesWrittenSys            43270144                       # Total written bytes from the system interface side
system.mem_ctrls2.servicedByWrQ                  2157                       # Number of DRAM read bursts serviced by the write queue
system.mem_ctrls2.mergedWrBursts                  842                       # Number of DRAM write bursts merged with an existing one
system.mem_ctrls2.neitherReadNorWriteReqs            0                       # Number of requests that are neither read nor write
system.mem_ctrls2.perBankRdBursts::0            95676                       # Per bank write bursts
system.mem_ctrls2.perBankRdBursts::1            97271                       # Per bank write bursts
system.mem_ctrls2.perBankRdBursts::2            92126                       # Per bank write bursts
system.mem_ctrls2.perBankRdBursts::3            91206                       # Per bank write bursts
system.mem_ctrls2.perBankRdBursts::4            90970                       # Per bank write bursts
system.mem_ctrls2.perBankRdBursts::5            91684                       # Per bank write bursts
system.mem_ctrls2.perBankRdBursts::6            92761                       # Per bank write bursts
system.mem_ctrls2.perBankRdBursts::7            92871                       # Per bank write bursts
system.mem_ctrls2.perBankRdBursts::8            93009                       # Per bank write bursts
system.mem_ctrls2.perBankRdBursts::9            91222                       # Per bank write bursts
system.mem_ctrls2.perBankRdBursts::10           92010                       # Per bank write bursts
system.mem_ctrls2.perBankRdBursts::11           92796                       # Per bank write bursts
system.mem_ctrls2.perBankRdBursts::12           92190                       # Per bank write bursts
system.mem_ctrls2.perBankRdBursts::13           92025                       # Per bank write bursts
system.mem_ctrls2.perBankRdBursts::14           91569                       # Per bank write bursts
system.mem_ctrls2.perBankRdBursts::15           91909                       # Per bank write bursts
system.mem_ctrls2.perBankWrBursts::0            45454                       # Per bank write bursts
system.mem_ctrls2.perBankWrBursts::1            42798                       # Per bank write bursts
system.mem_ctrls2.perBankWrBursts::2            41817                       # Per bank write bursts
system.mem_ctrls2.perBankWrBursts::3            41282                       # Per bank write bursts
system.mem_ctrls2.perBankWrBursts::4            41504                       # Per bank write bursts
system.mem_ctrls2.perBankWrBursts::5            41795                       # Per bank write bursts
system.mem_ctrls2.perBankWrBursts::6            42444                       # Per bank write bursts
system.mem_ctrls2.perBankWrBursts::7            42526                       # Per bank write bursts
system.mem_ctrls2.perBankWrBursts::8            42877                       # Per bank write bursts
system.mem_ctrls2.perBankWrBursts::9            41647                       # Per bank write bursts
system.mem_ctrls2.perBankWrBursts::10           41632                       # Per bank write bursts
system.mem_ctrls2.perBankWrBursts::11           41482                       # Per bank write bursts
system.mem_ctrls2.perBankWrBursts::12           41934                       # Per bank write bursts
system.mem_ctrls2.perBankWrBursts::13           41661                       # Per bank write bursts
system.mem_ctrls2.perBankWrBursts::14           42007                       # Per bank write bursts
system.mem_ctrls2.perBankWrBursts::15           42372                       # Per bank write bursts
system.mem_ctrls2.numRdRetry                        0                       # Number of times read queue was full causing retry
system.mem_ctrls2.numWrRetry                        0                       # Number of times write queue was full causing retry
system.mem_ctrls2.totGap                 1914244919500                       # Total gap between requests
system.mem_ctrls2.readPktSize::0                    0                       # Read request sizes (log2)
system.mem_ctrls2.readPktSize::1                    0                       # Read request sizes (log2)
system.mem_ctrls2.readPktSize::2                    0                       # Read request sizes (log2)
system.mem_ctrls2.readPktSize::3                    0                       # Read request sizes (log2)
system.mem_ctrls2.readPktSize::4                    0                       # Read request sizes (log2)
system.mem_ctrls2.readPktSize::5                    0                       # Read request sizes (log2)
system.mem_ctrls2.readPktSize::6              1483452                       # Read request sizes (log2)
system.mem_ctrls2.writePktSize::0                   0                       # Write request sizes (log2)
system.mem_ctrls2.writePktSize::1                   0                       # Write request sizes (log2)
system.mem_ctrls2.writePktSize::2                   0                       # Write request sizes (log2)
system.mem_ctrls2.writePktSize::3                   0                       # Write request sizes (log2)
system.mem_ctrls2.writePktSize::4                   0                       # Write request sizes (log2)
system.mem_ctrls2.writePktSize::5                   0                       # Write request sizes (log2)
system.mem_ctrls2.writePktSize::6              676096                       # Write request sizes (log2)
system.mem_ctrls2.rdQLenPdf::0                1480060                       # What read queue length does an incoming req see
system.mem_ctrls2.rdQLenPdf::1                   1235                       # What read queue length does an incoming req see
system.mem_ctrls2.rdQLenPdf::2                      0                       # What read queue length does an incoming req see
system.mem_ctrls2.rdQLenPdf::3                      0                       # What read queue length does an incoming req see
system.mem_ctrls2.rdQLenPdf::4                      0                       # What read queue length does an incoming req see
system.mem_ctrls2.rdQLenPdf::5                      0                       # What read queue length does an incoming req see
system.mem_ctrls2.rdQLenPdf::6                      0                       # What read queue length does an incoming req see
system.mem_ctrls2.rdQLenPdf::7                      0                       # What read queue length does an incoming req see
system.mem_ctrls2.rdQLenPdf::8                      0                       # What read queue length does an incoming req see
system.mem_ctrls2.rdQLenPdf::9                      0                       # What read queue length does an incoming req see
system.mem_ctrls2.rdQLenPdf::10                     0                       # What read queue length does an incoming req see
system.mem_ctrls2.rdQLenPdf::11                     0                       # What read queue length does an incoming req see
system.mem_ctrls2.rdQLenPdf::12                     0                       # What read queue length does an incoming req see
system.mem_ctrls2.rdQLenPdf::13                     0                       # What read queue length does an incoming req see
system.mem_ctrls2.rdQLenPdf::14                     0                       # What read queue length does an incoming req see
system.mem_ctrls2.rdQLenPdf::15                     0                       # What read queue length does an incoming req see
system.mem_ctrls2.rdQLenPdf::16                     0                       # What read queue length does an incoming req see
system.mem_ctrls2.rdQLenPdf::17                     0                       # What read queue length does an incoming req see
system.mem_ctrls2.rdQLenPdf::18                     0                       # What read queue length does an incoming req see
system.mem_ctrls2.rdQLenPdf::19                     0                       # What read queue length does an incoming req see
system.mem_ctrls2.rdQLenPdf::20                     0                       # What read queue length does an incoming req see
system.mem_ctrls2.rdQLenPdf::21                     0                       # What read queue length does an incoming req see
system.mem_ctrls2.rdQLenPdf::22                     0                       # What read queue length does an incoming req see
system.mem_ctrls2.rdQLenPdf::23                     0                       # What read queue length does an incoming req see
system.mem_ctrls2.rdQLenPdf::24                     0                       # What read queue length does an incoming req see
system.mem_ctrls2.rdQLenPdf::25                     0                       # What read queue length does an incoming req see
system.mem_ctrls2.rdQLenPdf::26                     0                       # What read queue length does an incoming req see
system.mem_ctrls2.rdQLenPdf::27                     0                       # What read queue length does an incoming req see
system.mem_ctrls2.rdQLenPdf::28                     0                       # What read queue length does an incoming req see
system.mem_ctrls2.rdQLenPdf::29                     0                       # What read queue length does an incoming req see
system.mem_ctrls2.rdQLenPdf::30                     0                       # What read queue length does an incoming req see
system.mem_ctrls2.rdQLenPdf::31                     0                       # What read queue length does an incoming req see
system.mem_ctrls2.wrQLenPdf::0                      0                       # What write queue length does an incoming req see
system.mem_ctrls2.wrQLenPdf::1                      0                       # What write queue length does an incoming req see
system.mem_ctrls2.wrQLenPdf::2                      0                       # What write queue length does an incoming req see
system.mem_ctrls2.wrQLenPdf::3                      0                       # What write queue length does an incoming req see
system.mem_ctrls2.wrQLenPdf::4                      0                       # What write queue length does an incoming req see
system.mem_ctrls2.wrQLenPdf::5                      0                       # What write queue length does an incoming req see
system.mem_ctrls2.wrQLenPdf::6                      0                       # What write queue length does an incoming req see
system.mem_ctrls2.wrQLenPdf::7                      0                       # What write queue length does an incoming req see
system.mem_ctrls2.wrQLenPdf::8                      0                       # What write queue length does an incoming req see
system.mem_ctrls2.wrQLenPdf::9                      1                       # What write queue length does an incoming req see
system.mem_ctrls2.wrQLenPdf::10                     1                       # What write queue length does an incoming req see
system.mem_ctrls2.wrQLenPdf::11                     1                       # What write queue length does an incoming req see
system.mem_ctrls2.wrQLenPdf::12                     1                       # What write queue length does an incoming req see
system.mem_ctrls2.wrQLenPdf::13                     1                       # What write queue length does an incoming req see
system.mem_ctrls2.wrQLenPdf::14                     1                       # What write queue length does an incoming req see
system.mem_ctrls2.wrQLenPdf::15                  1058                       # What write queue length does an incoming req see
system.mem_ctrls2.wrQLenPdf::16                  1077                       # What write queue length does an incoming req see
[...]
system.ruby.L1Cache_Controller.Ack       |        9746     58.28%     58.28% |        3337     19.96%     78.24% |        1690     10.11%     88.34% |        1949     11.66%    100.00%
system.ruby.L1Cache_Controller.Ack::total        16722                      
system.ruby.L1Cache_Controller.Ack_all   |        4876     45.30%     45.30% |        2457     22.83%     68.13% |        1388     12.90%     81.03% |        2042     18.97%    100.00%
system.ruby.L1Cache_Controller.Ack_all::total        10763                      
system.ruby.L1Cache_Controller.WB_Ack    |       30559      0.12%      0.12% |      231222      0.93%      1.05% |       48565      0.20%      1.25% |    24505300     98.75%    100.00%
system.ruby.L1Cache_Controller.WB_Ack::total     24815646                      
system.ruby.L1Cache_Controller.I.Load    |       79965      0.54%      0.54% |      239238      1.61%      2.14% |       95830      0.64%      2.79% |    14477032     97.21%    100.00%
system.ruby.L1Cache_Controller.I.Load::total     14892065                      
system.ruby.L1Cache_Controller.I.Store   |       16632      0.16%      0.16% |       71190      0.69%      0.85% |       21266      0.21%      1.06% |    10201922     98.94%    100.00%
system.ruby.L1Cache_Controller.I.Store::total     10311010                      
system.ruby.L1Cache_Controller.I.Inv     |        3381     17.28%     17.28% |        2625     13.41%     30.69% |        2830     14.46%     45.16% |       10732     54.84%    100.00%
system.ruby.L1Cache_Controller.I.Inv::total        19568                      
system.ruby.L1Cache_Controller.S.Load    |      111867      9.85%      9.85% |      255784     22.52%     32.37% |      121272     10.68%     43.05% |      646813     56.95%    100.00%
system.ruby.L1Cache_Controller.S.Load::total      1135736                      
system.ruby.L1Cache_Controller.S.Store   |        2996     38.61%     38.61% |        1813     23.36%     61.97% |        1195     15.40%     77.37% |        1756     22.63%    100.00%
system.ruby.L1Cache_Controller.S.Store::total         7760                      
system.ruby.L1Cache_Controller.S.L0_Invalidate_Own |       27457     10.02%     10.02% |       43523     15.89%     25.91% |       32211     11.76%     37.67% |      170737     62.33%    100.00%
system.ruby.L1Cache_Controller.S.L0_Invalidate_Own::total       273928                      
system.ruby.L1Cache_Controller.S.L0_Invalidate_Else |       16715     30.79%     30.79% |       17341     31.95%     62.74% |       19950     36.75%     99.49% |         275      0.51%    100.00%
system.ruby.L1Cache_Controller.S.L0_Invalidate_Else::total        54281                      
system.ruby.L1Cache_Controller.SS.Load   |        5656     31.47%     31.47% |        9216     51.29%     82.76% |        2807     15.62%     98.38% |         291      1.62%    100.00%
system.ruby.L1Cache_Controller.SS.Load::total        17970                      
system.ruby.L1Cache_Controller.SS.Store  |         622     83.83%     83.83% |          32      4.31%     88.14% |          68      9.16%     97.30% |          20      2.70%    100.00%
system.ruby.L1Cache_Controller.SS.Store::total          742                      
system.ruby.L1Cache_Controller.SS.Inv    |       18761     29.63%     29.63% |       21010     33.18%     62.80% |       22589     35.67%     98.47% |         967      1.53%    100.00%
system.ruby.L1Cache_Controller.SS.Inv::total        63327                      
system.ruby.L1Cache_Controller.SS.L1_Replacement |       28370     10.21%     10.21% |       44547     16.04%     26.25% |       33045     11.90%     38.15% |      171790     61.85%    100.00%
system.ruby.L1Cache_Controller.SS.L1_Replacement::total       277752                      
system.ruby.L1Cache_Controller.E.WriteBack |       35600      0.25%      0.25% |      177479      1.24%      1.48% |       38000      0.26%      1.75% |    14117721     98.25%    100.00%
system.ruby.L1Cache_Controller.E.WriteBack::total     14368800                      
system.ruby.L1Cache_Controller.E.L0_Invalidate_Own |         206      0.11%      0.11% |        2735      1.41%      1.52% |        4205      2.17%      3.68% |      186809     96.32%    100.00%
system.ruby.L1Cache_Controller.E.L0_Invalidate_Own::total       193955                      
system.ruby.L1Cache_Controller.E.L0_Invalidate_Else |        2609     23.68%     23.68% |        5464     49.59%     73.27% |        2851     25.88%     99.15% |          94      0.85%    100.00%
system.ruby.L1Cache_Controller.E.L0_Invalidate_Else::total        11018                      
system.ruby.L1Cache_Controller.EE.Inv    |        1180     35.35%     35.35% |         750     22.47%     57.82% |        1401     41.97%     99.79% |           7      0.21%    100.00%
system.ruby.L1Cache_Controller.EE.Inv::total         3338                      
system.ruby.L1Cache_Controller.EE.L1_Replacement |         164      0.09%      0.09% |        2616      1.38%      1.46% |         767      0.40%      1.87% |      186586     98.13%    100.00%
system.ruby.L1Cache_Controller.EE.L1_Replacement::total       190133                      
system.ruby.L1Cache_Controller.EE.Fwd_GETX |           6     33.33%     33.33% |           4     22.22%     55.56% |           5     27.78%     83.33% |           3     16.67%    100.00%
system.ruby.L1Cache_Controller.EE.Fwd_GETX::total           18                      
system.ruby.L1Cache_Controller.EE.Fwd_GETS |        1306     19.57%     19.57% |        4331     64.91%     84.49% |         978     14.66%     99.15% |          57      0.85%    100.00%
system.ruby.L1Cache_Controller.EE.Fwd_GETS::total         6672                      
system.ruby.L1Cache_Controller.M.WriteBack |       94102      0.26%      0.26% |      432052      1.21%      1.47% |      126335      0.35%      1.82% |    35180504     98.18%    100.00%
system.ruby.L1Cache_Controller.M.WriteBack::total     35832993                      
system.ruby.L1Cache_Controller.M.L0_Invalidate_Own |        2006      3.11%      3.11% |        3418      5.30%      8.41% |        1352      2.10%     10.51% |       57688     89.49%    100.00%
system.ruby.L1Cache_Controller.M.L0_Invalidate_Own::total        64464                      
system.ruby.L1Cache_Controller.M.L0_Invalidate_Else |        7214     35.43%     35.43% |        6718     32.99%     68.42% |        6148     30.19%     98.62% |         282      1.38%    100.00%
system.ruby.L1Cache_Controller.M.L0_Invalidate_Else::total        20362                      
system.ruby.L1Cache_Controller.MM.Load   |       63965      0.46%      0.46% |      260054      1.85%      2.31% |       84046      0.60%      2.90% |    13639239     97.10%    100.00%
system.ruby.L1Cache_Controller.MM.Load::total     14047304                      
system.ruby.L1Cache_Controller.MM.Store  |       19093      0.17%      0.17% |      109086      0.94%      1.11% |       27263      0.24%      1.35% |    11395549     98.65%    100.00%
system.ruby.L1Cache_Controller.MM.Store::total     11550991                      
system.ruby.L1Cache_Controller.MM.Inv    |       16621     41.18%     41.18% |       12601     31.22%     72.40% |       10672     26.44%     98.85% |         466      1.15%    100.00%
system.ruby.L1Cache_Controller.MM.Inv::total        40360                      
system.ruby.L1Cache_Controller.MM.L1_Replacement |       30395      0.12%      0.12% |      228606      0.93%      1.05% |       47798      0.19%      1.25% |    24318714     98.75%    100.00%
system.ruby.L1Cache_Controller.MM.L1_Replacement::total     24625513                      
system.ruby.L1Cache_Controller.MM.Fwd_GETX |        1071     41.98%     41.98% |         515     20.19%     62.17% |         653     25.60%     87.77% |         312     12.23%    100.00%
system.ruby.L1Cache_Controller.MM.Fwd_GETX::total         2551                      
system.ruby.L1Cache_Controller.MM.Fwd_GETS |        7941     32.24%     32.24% |        9624     39.07%     71.31% |        5148     20.90%     92.21% |        1920      7.79%    100.00%
system.ruby.L1Cache_Controller.MM.Fwd_GETS::total        24633                      
system.ruby.L1Cache_Controller.IS.Data_Exclusive |       38415      0.26%      0.26% |      185654      1.27%      1.54% |       45055      0.31%      1.85% |    14304640     98.15%    100.00%
system.ruby.L1Cache_Controller.IS.Data_Exclusive::total     14573764                      
system.ruby.L1Cache_Controller.IS.DataS_fromL1 |        5155     16.47%     16.47% |        4474     14.29%     30.76% |       14803     47.29%     78.05% |        6873     21.95%    100.00%
system.ruby.L1Cache_Controller.IS.DataS_fromL1::total        31305                      
system.ruby.L1Cache_Controller.IS.Data_all_Acks |       36395     12.68%     12.68% |       49110     17.11%     29.79% |       35972     12.53%     42.33% |      165519     57.67%    100.00%
system.ruby.L1Cache_Controller.IS.Data_all_Acks::total       286996                      
system.ruby.L1Cache_Controller.IM.Data   |        1258     55.61%     55.61% |         612     27.06%     82.67% |         126      5.57%     88.24% |         266     11.76%    100.00%
system.ruby.L1Cache_Controller.IM.Data::total         2262                      
system.ruby.L1Cache_Controller.IM.Data_all_Acks |       15374      0.15%      0.15% |       70578      0.68%      0.83% |       21141      0.21%      1.04% |    10201656     98.96%    100.00%
system.ruby.L1Cache_Controller.IM.Data_all_Acks::total     10308749                      
system.ruby.L1Cache_Controller.SM.Inv    |           0      0.00%      0.00% |           0      0.00%      0.00% |           1    100.00%    100.00% |           0      0.00%    100.00%
system.ruby.L1Cache_Controller.SM.Inv::total            1                      
system.ruby.L1Cache_Controller.SM.Ack    |        9746     58.28%     58.28% |        3337     19.96%     78.24% |        1690     10.11%     88.34% |        1949     11.66%    100.00%
system.ruby.L1Cache_Controller.SM.Ack::total        16722                      
system.ruby.L1Cache_Controller.SM.Ack_all |        4876     45.30%     45.30% |        2457     22.83%     68.13% |        1388     12.90%     81.03% |        2042     18.97%    100.00%
system.ruby.L1Cache_Controller.SM.Ack_all::total        10763                      
system.ruby.L1Cache_Controller.M_I.WB_Ack |       30559      0.12%      0.12% |      231222      0.93%      1.05% |       48565      0.20%      1.25% |    24505300     98.75%    100.00%
system.ruby.L1Cache_Controller.M_I.WB_Ack::total     24815646                      
system.ruby.L1Cache_Controller.S_IL0.L0_Invalidate_Own |       27457     10.02%     10.02% |       43523     15.89%     25.91% |       32211     11.76%     37.67% |      170737     62.33%    100.00%
system.ruby.L1Cache_Controller.S_IL0.L0_Invalidate_Own::total       273928                      
system.ruby.L1Cache_Controller.S_IL0.L0_Invalidate_Else |       16715     30.79%     30.79% |       17341     31.95%     62.74% |       19950     36.75%     99.49% |         275      0.51%    100.00%
system.ruby.L1Cache_Controller.S_IL0.L0_Invalidate_Else::total        54281                      
system.ruby.L1Cache_Controller.S_IL0.L0_Ack |       44172     13.46%     13.46% |       60864     18.54%     32.00% |       52161     15.89%     47.90% |      171012     52.10%    100.00%
system.ruby.L1Cache_Controller.S_IL0.L0_Ack::total       328209                      
system.ruby.L1Cache_Controller.E_IL0.L0_DataAck |         159      3.30%      3.30% |         498     10.35%     13.65% |        3905     81.15%     94.80% |         250      5.20%    100.00%
system.ruby.L1Cache_Controller.E_IL0.L0_DataAck::total         4812                      
system.ruby.L1Cache_Controller.E_IL0.L0_Invalidate_Own |         206      0.11%      0.11% |        2735      1.41%      1.52% |        4205      2.17%      3.68% |      186809     96.32%    100.00%
system.ruby.L1Cache_Controller.E_IL0.L0_Invalidate_Own::total       193955                      
system.ruby.L1Cache_Controller.E_IL0.L0_Invalidate_Else |        2609     23.68%     23.68% |        5464     49.59%     73.27% |        2851     25.88%     99.15% |          94      0.85%    100.00%
system.ruby.L1Cache_Controller.E_IL0.L0_Invalidate_Else::total        11018                      
system.ruby.L1Cache_Controller.E_IL0.L0_Ack |        2656      1.33%      1.33% |        7701      3.85%      5.17% |        3151      1.57%      6.75% |      186653     93.25%    100.00%
system.ruby.L1Cache_Controller.E_IL0.L0_Ack::total       200161                      
system.ruby.L1Cache_Controller.M_IL0.WriteBack |           0      0.00%      0.00% |           0      0.00%      0.00% |           1    100.00%    100.00% |           0      0.00%    100.00%
system.ruby.L1Cache_Controller.M_IL0.WriteBack::total            1                      
system.ruby.L1Cache_Controller.M_IL0.L0_DataAck |        6620     26.33%     26.33% |        6285     25.00%     51.33% |        5847     23.26%     74.59% |        6389     25.41%    100.00%
system.ruby.L1Cache_Controller.M_IL0.L0_DataAck::total        25141                      
system.ruby.L1Cache_Controller.M_IL0.L0_Invalidate_Own |        2006      3.11%      3.11% |        3418      5.30%      8.41% |        1352      2.10%     10.51% |       57688     89.49%    100.00%
system.ruby.L1Cache_Controller.M_IL0.L0_Invalidate_Own::total        64464                      
system.ruby.L1Cache_Controller.M_IL0.L0_Invalidate_Else |        7214     35.43%     35.43% |        6718     32.99%     68.42% |        6148     30.19%     98.62% |         282      1.38%    100.00%
system.ruby.L1Cache_Controller.M_IL0.L0_Invalidate_Else::total        20362                      
system.ruby.L1Cache_Controller.M_IL0.L0_Ack |        2600      4.36%      4.36% |        3851      6.45%     10.81% |        1652      2.77%     13.58% |       51581     86.42%    100.00%
system.ruby.L1Cache_Controller.M_IL0.L0_Ack::total        59684                      
system.ruby.L1Cache_Controller.MM_IL0.Fwd_GETS |           0      0.00%      0.00% |           0      0.00%      0.00% |           1    100.00%    100.00% |           0      0.00%    100.00%
system.ruby.L1Cache_Controller.MM_IL0.Fwd_GETS::total            1                      
system.ruby.L1Cache_Controller.MM_IL0.L0_Ack |           0      0.00%      0.00% |           0      0.00%      0.00% |           1    100.00%    100.00% |           0      0.00%    100.00%
system.ruby.L1Cache_Controller.MM_IL0.L0_Ack::total            1                      
system.ruby.L2Cache_Controller.L1_GETS       14892166      0.00%      0.00%
system.ruby.L2Cache_Controller.L1_GETX       10311022      0.00%      0.00%
system.ruby.L2Cache_Controller.L1_UPGRADE         8502      0.00%      0.00%
system.ruby.L2Cache_Controller.L1_PUTX       24815646      0.00%      0.00%
system.ruby.L2Cache_Controller.L2_Replacement      2720296      0.00%      0.00%
system.ruby.L2Cache_Controller.L2_Replacement_clean      3239941      0.00%      0.00%
system.ruby.L2Cache_Controller.Mem_Data       5977801      0.00%      0.00%
system.ruby.L2Cache_Controller.Mem_Ack        5960244      0.00%      0.00%
system.ruby.L2Cache_Controller.WB_Data          31719      0.00%      0.00%
system.ruby.L2Cache_Controller.WB_Data_clean        39946      0.00%      0.00%
system.ruby.L2Cache_Controller.Ack              44109      0.00%      0.00%
system.ruby.L2Cache_Controller.Ack_all          23141      0.00%      0.00%
system.ruby.L2Cache_Controller.Unblock          31305      0.00%      0.00%
system.ruby.L2Cache_Controller.Exclusive_Unblock     24893276      0.00%      0.00%
system.ruby.L2Cache_Controller.MEM_Inv             14      0.00%      0.00%
system.ruby.L2Cache_Controller.NP.L1_GETS      3265112      0.00%      0.00%
system.ruby.L2Cache_Controller.NP.L1_GETX      2712689      0.00%      0.00%
system.ruby.L2Cache_Controller.SS.L1_GETS       286956      0.00%      0.00%
system.ruby.L2Cache_Controller.SS.L1_GETX         2262      0.00%      0.00%
system.ruby.L2Cache_Controller.SS.L1_UPGRADE         8501      0.00%      0.00%
system.ruby.L2Cache_Controller.SS.L2_Replacement          638      0.00%      0.00%
system.ruby.L2Cache_Controller.SS.L2_Replacement_clean        19165      0.00%      0.00%
system.ruby.L2Cache_Controller.M.L1_GETS     11308672      0.00%      0.00%
system.ruby.L2Cache_Controller.M.L1_GETX      7593491      0.00%      0.00%
system.ruby.L2Cache_Controller.M.L2_Replacement      2718200      0.00%      0.00%
system.ruby.L2Cache_Controller.M.L2_Replacement_clean      3178538      0.00%      0.00%
system.ruby.L2Cache_Controller.M.MEM_Inv            5      0.00%      0.00%
system.ruby.L2Cache_Controller.MT.L1_GETS        31305      0.00%      0.00%
system.ruby.L2Cache_Controller.MT.L1_GETX         2569      0.00%      0.00%
system.ruby.L2Cache_Controller.MT.L1_PUTX     24815646      0.00%      0.00%
system.ruby.L2Cache_Controller.MT.L2_Replacement         1458      0.00%      0.00%
system.ruby.L2Cache_Controller.MT.L2_Replacement_clean        42238      0.00%      0.00%
system.ruby.L2Cache_Controller.MT.MEM_Inv            2      0.00%      0.00%
system.ruby.L2Cache_Controller.M_I.L1_GETX            1      0.00%      0.00%
system.ruby.L2Cache_Controller.M_I.Mem_Ack      5960244      0.00%      0.00%
system.ruby.L2Cache_Controller.M_I.MEM_Inv            5      0.00%      0.00%
system.ruby.L2Cache_Controller.MT_I.WB_Data         1012      0.00%      0.00%
system.ruby.L2Cache_Controller.MT_I.WB_Data_clean          227      0.00%      0.00%
system.ruby.L2Cache_Controller.MT_I.Ack_all          221      0.00%      0.00%
system.ruby.L2Cache_Controller.MT_I.MEM_Inv            2      0.00%      0.00%
system.ruby.L2Cache_Controller.MCT_I.WB_Data        24612      0.00%      0.00%
system.ruby.L2Cache_Controller.MCT_I.WB_Data_clean        14509      0.00%      0.00%
system.ruby.L2Cache_Controller.MCT_I.Ack_all         3117      0.00%      0.00%
system.ruby.L2Cache_Controller.I_I.Ack          43361      0.00%      0.00%
system.ruby.L2Cache_Controller.I_I.Ack_all        19165      0.00%      0.00%
system.ruby.L2Cache_Controller.S_I.Ack            748      0.00%      0.00%
system.ruby.L2Cache_Controller.S_I.Ack_all          638      0.00%      0.00%
system.ruby.L2Cache_Controller.ISS.L1_GETS           20      0.00%      0.00%
system.ruby.L2Cache_Controller.ISS.Mem_Data      3265092      0.00%      0.00%
system.ruby.L2Cache_Controller.IS.Mem_Data           20      0.00%      0.00%
system.ruby.L2Cache_Controller.IM.Mem_Data      2712689      0.00%      0.00%
system.ruby.L2Cache_Controller.SS_MB.L1_GETS           80      0.00%      0.00%
system.ruby.L2Cache_Controller.SS_MB.L1_GETX            6      0.00%      0.00%
system.ruby.L2Cache_Controller.SS_MB.L1_UPGRADE            1      0.00%      0.00%
system.ruby.L2Cache_Controller.SS_MB.Exclusive_Unblock        10763      0.00%      0.00%
system.ruby.L2Cache_Controller.MT_MB.L1_GETS           20      0.00%      0.00%
system.ruby.L2Cache_Controller.MT_MB.L1_GETX            3      0.00%      0.00%
system.ruby.L2Cache_Controller.MT_MB.Exclusive_Unblock     24882513      0.00%      0.00%
system.ruby.L2Cache_Controller.MT_IIB.L1_GETS            1      0.00%      0.00%
system.ruby.L2Cache_Controller.MT_IIB.L1_GETX            1      0.00%      0.00%
system.ruby.L2Cache_Controller.MT_IIB.WB_Data         6090      0.00%      0.00%
system.ruby.L2Cache_Controller.MT_IIB.WB_Data_clean        25133      0.00%      0.00%
system.ruby.L2Cache_Controller.MT_IIB.Unblock           82      0.00%      0.00%
system.ruby.L2Cache_Controller.MT_IB.WB_Data            5      0.00%      0.00%
system.ruby.L2Cache_Controller.MT_IB.WB_Data_clean           77      0.00%      0.00%
system.ruby.L2Cache_Controller.MT_SB.Unblock        31223      0.00%      0.00%

---------- End Simulation Statistics   ----------
