
---------- Begin Simulation Statistics ----------
sim_seconds                                  3.957919                       # Number of seconds simulated
sim_ticks                                3957919407000                       # Number of ticks simulated
final_tick                               56400014875501                       # Number of ticks from beginning of simulation (restored from checkpoints and never reset)
sim_freq                                 1000000000000                       # Frequency of simulated ticks
host_inst_rate                                 136242                       # Simulator instruction rate (inst/s)
host_op_rate                                   232060                       # Simulator op (including micro ops) rate (op/s)
host_tick_rate                              266709011                       # Simulator tick rate (ticks/s)
host_mem_usage                                2024688                       # Number of bytes of host memory used
host_seconds                                 14839.84                       # Real time elapsed on the host
sim_insts                                  2021814475                       # Number of instructions simulated
sim_ops                                    3443738171                       # Number of ops (including micro ops) simulated
system.voltage_domain.voltage                       1                       # Voltage in Volts
system.clk_domain.clock                          1000                       # Clock period in ticks
system.mem_ctrls.bytes_read::ruby.dir_cntrl0      1146336                       # Number of bytes read from this memory
system.mem_ctrls.bytes_read::total            1146336                       # Number of bytes read from this memory
system.mem_ctrls.bytes_written::ruby.dir_cntrl0       346784                       # Number of bytes written to this memory
system.mem_ctrls.bytes_written::total          346784                       # Number of bytes written to this memory
system.mem_ctrls.num_reads::ruby.dir_cntrl0        35823                       # Number of read requests responded to by this memory
system.mem_ctrls.num_reads::total               35823                       # Number of read requests responded to by this memory
system.mem_ctrls.num_writes::ruby.dir_cntrl0        10837                       # Number of write requests responded to by this memory
system.mem_ctrls.num_writes::total              10837                       # Number of write requests responded to by this memory
system.mem_ctrls.bw_read::ruby.dir_cntrl0       289631                       # Total read bandwidth from this memory (bytes/s)
system.mem_ctrls.bw_read::total                289631                       # Total read bandwidth from this memory (bytes/s)
system.mem_ctrls.bw_write::ruby.dir_cntrl0        87618                       # Write bandwidth from this memory (bytes/s)
system.mem_ctrls.bw_write::total                87618                       # Write bandwidth from this memory (bytes/s)
system.mem_ctrls.bw_total::ruby.dir_cntrl0       377249                       # Total bandwidth to/from this memory (bytes/s)
system.mem_ctrls.bw_total::total               377249                       # Total bandwidth to/from this memory (bytes/s)
system.mem_ctrls.readReqs                       35823                       # Number of read requests accepted
system.mem_ctrls.writeReqs                      10837                       # Number of write requests accepted
system.mem_ctrls.readBursts                     35823                       # Number of DRAM read bursts, including those serviced by the write queue
system.mem_ctrls.writeBursts                    10837                       # Number of DRAM write bursts, including those merged in the write queue
system.mem_ctrls.bytesReadDRAM                2291008                       # Total number of bytes read from DRAM
system.mem_ctrls.bytesReadWrQ                    1664                       # Total number of bytes read from write queue
system.mem_ctrls.bytesWritten                  471680                       # Total number of bytes written to DRAM
system.mem_ctrls.bytesReadSys                 1146336                       # Total read bytes from the system interface side
system.mem_ctrls.bytesWrittenSys               346784                       # Total written bytes from the system interface side
system.mem_ctrls.servicedByWrQ                     26                       # Number of DRAM read bursts serviced by the write queue
system.mem_ctrls.mergedWrBursts                  3451                       # Number of DRAM write bursts merged with an existing one
system.mem_ctrls.neitherReadNorWriteReqs            0                       # Number of requests that are neither read nor write
system.mem_ctrls.perBankRdBursts::0              2779                       # Per bank write bursts
system.mem_ctrls.perBankRdBursts::1              1990                       # Per bank write bursts
system.mem_ctrls.perBankRdBursts::2              1782                       # Per bank write bursts
system.mem_ctrls.perBankRdBursts::3              1743                       # Per bank write bursts
system.mem_ctrls.perBankRdBursts::4              2033                       # Per bank write bursts
system.mem_ctrls.perBankRdBursts::5              2300                       # Per bank write bursts
system.mem_ctrls.perBankRdBursts::6              2768                       # Per bank write bursts
system.mem_ctrls.perBankRdBursts::7              3449                       # Per bank write bursts
system.mem_ctrls.perBankRdBursts::8              1957                       # Per bank write bursts
system.mem_ctrls.perBankRdBursts::9              1590                       # Per bank write bursts
system.mem_ctrls.perBankRdBursts::10             2051                       # Per bank write bursts
system.mem_ctrls.perBankRdBursts::11             1870                       # Per bank write bursts
system.mem_ctrls.perBankRdBursts::12             1972                       # Per bank write bursts
system.mem_ctrls.perBankRdBursts::13             2436                       # Per bank write bursts
system.mem_ctrls.perBankRdBursts::14             2731                       # Per bank write bursts
system.mem_ctrls.perBankRdBursts::15             2346                       # Per bank write bursts
system.mem_ctrls.perBankWrBursts::0               620                       # Per bank write bursts
system.mem_ctrls.perBankWrBursts::1               515                       # Per bank write bursts
system.mem_ctrls.perBankWrBursts::2               487                       # Per bank write bursts
system.mem_ctrls.perBankWrBursts::3               425                       # Per bank write bursts
system.mem_ctrls.perBankWrBursts::4               592                       # Per bank write bursts
system.mem_ctrls.perBankWrBursts::5               440                       # Per bank write bursts
system.mem_ctrls.perBankWrBursts::6               536                       # Per bank write bursts
system.mem_ctrls.perBankWrBursts::7               773                       # Per bank write bursts
system.mem_ctrls.perBankWrBursts::8               195                       # Per bank write bursts
system.mem_ctrls.perBankWrBursts::9               107                       # Per bank write bursts
system.mem_ctrls.perBankWrBursts::10              327                       # Per bank write bursts
system.mem_ctrls.perBankWrBursts::11              130                       # Per bank write bursts
system.mem_ctrls.perBankWrBursts::12              304                       # Per bank write bursts
system.mem_ctrls.perBankWrBursts::13              603                       # Per bank write bursts
system.mem_ctrls.perBankWrBursts::14              968                       # Per bank write bursts
system.mem_ctrls.perBankWrBursts::15              348                       # Per bank write bursts
system.mem_ctrls.numRdRetry                         0                       # Number of times read queue was full causing retry
system.mem_ctrls.numWrRetry                         0                       # Number of times write queue was full causing retry
system.mem_ctrls.totGap                  3957919406500                       # Total gap between requests
system.mem_ctrls.readPktSize::0                     0                       # Read request sizes (log2)
system.mem_ctrls.readPktSize::1                     0                       # Read request sizes (log2)
system.mem_ctrls.readPktSize::2                     0                       # Read request sizes (log2)
system.mem_ctrls.readPktSize::3                     0                       # Read request sizes (log2)
system.mem_ctrls.readPktSize::4                     0                       # Read request sizes (log2)
system.mem_ctrls.readPktSize::5                 35823                       # Read request sizes (log2)
system.mem_ctrls.readPktSize::6                     0                       # Read request sizes (log2)
system.mem_ctrls.writePktSize::0                    0                       # Write request sizes (log2)
system.mem_ctrls.writePktSize::1                    0                       # Write request sizes (log2)
system.mem_ctrls.writePktSize::2                    0                       # Write request sizes (log2)
system.mem_ctrls.writePktSize::3                    0                       # Write request sizes (log2)
system.mem_ctrls.writePktSize::4                    0                       # Write request sizes (log2)
system.mem_ctrls.writePktSize::5                10837                       # Write request sizes (log2)
system.mem_ctrls.writePktSize::6                    0                       # Write request sizes (log2)
system.mem_ctrls.rdQLenPdf::0                   35511                       # What read queue length does an incoming req see
system.mem_ctrls.rdQLenPdf::1                     277                       # What read queue length does an incoming req see
system.mem_ctrls.rdQLenPdf::2                       9                       # What read queue length does an incoming req see
system.mem_ctrls.rdQLenPdf::3                       0                       # What read queue length does an incoming req see
system.mem_ctrls.rdQLenPdf::4                       0                       # What read queue length does an incoming req see
system.mem_ctrls.rdQLenPdf::5                       0                       # What read queue length does an incoming req see
system.mem_ctrls.rdQLenPdf::6                       0                       # What read queue length does an incoming req see
system.mem_ctrls.rdQLenPdf::7                       0                       # What read queue length does an incoming req see
system.mem_ctrls.rdQLenPdf::8                       0                       # What read queue length does an incoming req see
system.mem_ctrls.rdQLenPdf::9                       0                       # What read queue length does an incoming req see
system.mem_ctrls.rdQLenPdf::10                      0                       # What read queue length does an incoming req see
system.mem_ctrls.rdQLenPdf::11                      0                       # What read queue length does an incoming req see
system.mem_ctrls.rdQLenPdf::12                      0                       # What read queue length does an incoming req see
system.mem_ctrls.rdQLenPdf::13                      0                       # What read queue length does an incoming req see
system.mem_ctrls.rdQLenPdf::14                      0                       # What read queue length does an incoming req see
system.mem_ctrls.rdQLenPdf::15                      0                       # What read queue length does an incoming req see
system.mem_ctrls.rdQLenPdf::16                      0                       # What read queue length does an incoming req see
system.mem_ctrls.rdQLenPdf::17                      0                       # What read queue length does an incoming req see
system.mem_ctrls.rdQLenPdf::18                      0                       # What read queue length does an incoming req see
system.mem_ctrls.rdQLenPdf::19                      0                       # What read queue length does an incoming req see
system.mem_ctrls.rdQLenPdf::20                      0                       # What read queue length does an incoming req see
system.mem_ctrls.rdQLenPdf::21                      0                       # What read queue length does an incoming req see
system.mem_ctrls.rdQLenPdf::22                      0                       # What read queue length does an incoming req see
system.mem_ctrls.rdQLenPdf::23                      0                       # What read queue length does an incoming req see
system.mem_ctrls.rdQLenPdf::24                      0                       # What read queue length does an incoming req see
system.mem_ctrls.rdQLenPdf::25                      0                       # What read queue length does an incoming req see
system.mem_ctrls.rdQLenPdf::26                      0                       # What read queue length does an incoming req see
system.mem_ctrls.rdQLenPdf::27                      0                       # What read queue length does an incoming req see
system.mem_ctrls.rdQLenPdf::28                      0                       # What read queue length does an incoming req see
system.mem_ctrls.rdQLenPdf::29                      0                       # What read queue length does an incoming req see
system.mem_ctrls.rdQLenPdf::30                      0                       # What read queue length does an incoming req see
system.mem_ctrls.rdQLenPdf::31                      0                       # What read queue length does an incoming req see
system.mem_ctrls.wrQLenPdf::0                       0                       # What write queue length does an incoming req see
system.mem_ctrls.wrQLenPdf::1                       0                       # What write queue length does an incoming req see
system.mem_ctrls.wrQLenPdf::2                       0                       # What write queue length does an incoming req see
system.mem_ctrls.wrQLenPdf::3                       0                       # What write queue length does an incoming req see
system.mem_ctrls.wrQLenPdf::4                       0                       # What write queue length does an incoming req see
system.mem_ctrls.wrQLenPdf::5                       0                       # What write queue length does an incoming req see
system.mem_ctrls.wrQLenPdf::6                       0                       # What write queue length does an incoming req see
system.mem_ctrls.wrQLenPdf::7                       0                       # What write queue length does an incoming req see
system.mem_ctrls.wrQLenPdf::8                       0                       # What write queue length does an incoming req see
system.mem_ctrls.wrQLenPdf::9                       0                       # What write queue length does an incoming req see
system.mem_ctrls.wrQLenPdf::10                      0                       # What write queue length does an incoming req see
system.mem_ctrls.wrQLenPdf::11                      1                       # What write queue length does an incoming req see
system.mem_ctrls.wrQLenPdf::12                      1                       # What write queue length does an incoming req see
system.mem_ctrls.wrQLenPdf::13                      1                       # What write queue length does an incoming req see
system.mem_ctrls.wrQLenPdf::14                      1                       # What write queue length does an incoming req see
system.mem_ctrls.wrQLenPdf::15                    135                       # What write queue length does an incoming req see
system.mem_ctrls.wrQLenPdf::16                    147                       # What write queue length does an incoming req see
system.mem_ctrls.wrQLenPdf::17                    426                       # What write queue length does an incoming req see
system.mem_ctrls.wrQLenPdf::18                    443                       # What write queue length does an incoming req see
system.mem_ctrls.wrQLenPdf::19                    480                       # What write queue length does an incoming req see
system.mem_ctrls.wrQLenPdf::20                    441                       # What write queue length does an incoming req see
system.mem_ctrls.wrQLenPdf::21                    469                       # What write queue length does an incoming req see
system.mem_ctrls.wrQLenPdf::22                    491                       # What write queue length does an incoming req see
system.mem_ctrls.wrQLenPdf::23                    435                       # What write queue length does an incoming req see
system.mem_ctrls.wrQLenPdf::24                    437                       # What write queue length does an incoming req see
system.mem_ctrls.wrQLenPdf::25                    438                       # What write queue length does an incoming req see
system.mem_ctrls.wrQLenPdf::26                    436                       # What write queue length does an incoming req see
system.mem_ctrls.wrQLenPdf::27                    434                       # What write queue length does an incoming req see
system.mem_ctrls.wrQLenPdf::28                    433                       # What write queue length does an incoming req see
system.mem_ctrls.wrQLenPdf::29                    430                       # What write queue length does an incoming req see
system.mem_ctrls.wrQLenPdf::30                    441                       # What write queue length does an incoming req see
system.mem_ctrls.wrQLenPdf::31                    428                       # What write queue length does an incoming req see
system.mem_ctrls.wrQLenPdf::32                    427                       # What write queue length does an incoming req see
system.mem_ctrls.wrQLenPdf::33                      3                       # What write queue length does an incoming req see
system.mem_ctrls.wrQLenPdf::34                      3                       # What write queue length does an incoming req see
system.mem_ctrls.wrQLenPdf::35                      2                       # What write queue length does an incoming req see
system.mem_ctrls.wrQLenPdf::36                      2                       # What write queue length does an incoming req see
system.mem_ctrls.wrQLenPdf::37                      1                       # What write queue length does an incoming req see
system.mem_ctrls.wrQLenPdf::38                      0                       # What write queue length does an incoming req see
system.mem_ctrls.wrQLenPdf::39                      0                       # What write queue length does an incoming req see
system.mem_ctrls.wrQLenPdf::40                      0                       # What write queue length does an incoming req see
system.mem_ctrls.wrQLenPdf::41                      0                       # What write queue length does an incoming req see
system.mem_ctrls.wrQLenPdf::42                      0                       # What write queue length does an incoming req see
system.mem_ctrls.wrQLenPdf::43                      0                       # What write queue length does an incoming req see
system.mem_ctrls.wrQLenPdf::44                      0                       # What write queue length does an incoming req see
system.mem_ctrls.wrQLenPdf::45                      0                       # What write queue length does an incoming req see
system.mem_ctrls.wrQLenPdf::46                      0                       # What write queue length does an incoming req see
system.mem_ctrls.wrQLenPdf::47                      0                       # What write queue length does an incoming req see
system.mem_ctrls.wrQLenPdf::48                      0                       # What write queue length does an incoming req see
system.mem_ctrls.wrQLenPdf::49                      0                       # What write queue length does an incoming req see
system.mem_ctrls.wrQLenPdf::50                      0                       # What write queue length does an incoming req see
system.mem_ctrls.wrQLenPdf::51                      0                       # What write queue length does an incoming req see
system.mem_ctrls.wrQLenPdf::52                      0                       # What write queue length does an incoming req see
system.mem_ctrls.wrQLenPdf::53                      0                       # What write queue length does an incoming req see
system.mem_ctrls.wrQLenPdf::54                      0                       # What write queue length does an incoming req see
system.mem_ctrls.wrQLenPdf::55                      0                       # What write queue length does an incoming req see
system.mem_ctrls.wrQLenPdf::56                      0                       # What write queue length does an incoming req see
system.mem_ctrls.wrQLenPdf::57                      0                       # What write queue length does an incoming req see
system.mem_ctrls.wrQLenPdf::58                      0                       # What write queue length does an incoming req see
system.mem_ctrls.wrQLenPdf::59                      0                       # What write queue length does an incoming req see
system.mem_ctrls.wrQLenPdf::60                      0                       # What write queue length does an incoming req see
system.mem_ctrls.wrQLenPdf::61                      0                       # What write queue length does an incoming req see
system.mem_ctrls.wrQLenPdf::62                      0                       # What write queue length does an incoming req see
system.mem_ctrls.wrQLenPdf::63                      0                       # What write queue length does an incoming req see
system.mem_ctrls.bytesPerActivate::samples         9187                       # Bytes accessed per row activation
system.mem_ctrls.bytesPerActivate::mean    300.724067                       # Bytes accessed per row activation
system.mem_ctrls.bytesPerActivate::gmean   165.655605                       # Bytes accessed per row activation
system.mem_ctrls.bytesPerActivate::stdev   346.676844                       # Bytes accessed per row activation
system.mem_ctrls.bytesPerActivate::0-127         4051     44.09%     44.09% # Bytes accessed per row activation
system.mem_ctrls.bytesPerActivate::128-255         2078     22.62%     66.71% # Bytes accessed per row activation
system.mem_ctrls.bytesPerActivate::256-383          638      6.94%     73.66% # Bytes accessed per row activation
system.mem_ctrls.bytesPerActivate::384-511          354      3.85%     77.51% # Bytes accessed per row activation
system.mem_ctrls.bytesPerActivate::512-639          272      2.96%     80.47% # Bytes accessed per row activation
system.mem_ctrls.bytesPerActivate::640-767          195      2.12%     82.59% # Bytes accessed per row activation
system.mem_ctrls.bytesPerActivate::768-895          155      1.69%     84.28% # Bytes accessed per row activation
system.mem_ctrls.bytesPerActivate::896-1023          106      1.15%     85.44% # Bytes accessed per row activation
system.mem_ctrls.bytesPerActivate::1024-1151         1338     14.56%    100.00% # Bytes accessed per row activation
system.mem_ctrls.bytesPerActivate::total         9187                       # Bytes accessed per row activation
system.mem_ctrls.rdPerTurnAround::samples          427                       # Reads before turning the bus around for writes
system.mem_ctrls.rdPerTurnAround::mean     150.714286                       # Reads before turning the bus around for writes
system.mem_ctrls.rdPerTurnAround::stdev   1462.022879                       # Reads before turning the bus around for writes
system.mem_ctrls.rdPerTurnAround::0-1023          425     99.53%     99.53% # Reads before turning the bus around for writes
system.mem_ctrls.rdPerTurnAround::1024-2047            1      0.23%     99.77% # Reads before turning the bus around for writes
system.mem_ctrls.rdPerTurnAround::29696-30719            1      0.23%    100.00% # Reads before turning the bus around for writes
system.mem_ctrls.rdPerTurnAround::total           427                       # Reads before turning the bus around for writes
system.mem_ctrls.wrPerTurnAround::samples          427                       # Writes before turning the bus around for reads
system.mem_ctrls.wrPerTurnAround::mean      17.259953                       # Writes before turning the bus around for reads
system.mem_ctrls.wrPerTurnAround::gmean     17.155521                       # Writes before turning the bus around for reads
system.mem_ctrls.wrPerTurnAround::stdev      1.989494                       # Writes before turning the bus around for reads
system.mem_ctrls.wrPerTurnAround::16              291     68.15%     68.15% # Writes before turning the bus around for reads
system.mem_ctrls.wrPerTurnAround::18                8      1.87%     70.02% # Writes before turning the bus around for reads
system.mem_ctrls.wrPerTurnAround::19               39      9.13%     79.16% # Writes before turning the bus around for reads
system.mem_ctrls.wrPerTurnAround::20               66     15.46%     94.61% # Writes before turning the bus around for reads
system.mem_ctrls.wrPerTurnAround::21               10      2.34%     96.96% # Writes before turning the bus around for reads
system.mem_ctrls.wrPerTurnAround::22                9      2.11%     99.06% # Writes before turning the bus around for reads
system.mem_ctrls.wrPerTurnAround::23                1      0.23%     99.30% # Writes before turning the bus around for reads
system.mem_ctrls.wrPerTurnAround::25                1      0.23%     99.53% # Writes before turning the bus around for reads
system.mem_ctrls.wrPerTurnAround::26                1      0.23%     99.77% # Writes before turning the bus around for reads
system.mem_ctrls.wrPerTurnAround::27                1      0.23%    100.00% # Writes before turning the bus around for reads
system.mem_ctrls.wrPerTurnAround::total           427                       # Writes before turning the bus around for reads
system.mem_ctrls.totQLat                    273030995                       # Total ticks spent queuing
system.mem_ctrls.totMemAccLat               944224745                       # Total ticks spent from burst creation until serviced by the DRAM
system.mem_ctrls.totBusLat                  178985000                       # Total ticks spent in databus transfers
system.mem_ctrls.avgQLat                      7627.20                       # Average queueing delay per DRAM burst
system.mem_ctrls.avgBusLat                    5000.00                       # Average bus latency per DRAM burst
system.mem_ctrls.avgMemAccLat                26377.20                       # Average memory access latency per DRAM burst
system.mem_ctrls.avgRdBW                         0.58                       # Average DRAM read bandwidth in MiByte/s
system.mem_ctrls.avgWrBW                         0.12                       # Average achieved write bandwidth in MiByte/s
system.mem_ctrls.avgRdBWSys                      0.29                       # Average system read bandwidth in MiByte/s
system.mem_ctrls.avgWrBWSys                      0.09                       # Average system write bandwidth in MiByte/s
system.mem_ctrls.peakBW                      12800.00                       # Theoretical peak bandwidth in MiByte/s
system.mem_ctrls.busUtil                         0.01                       # Data bus utilization in percentage
system.mem_ctrls.busUtilRead                     0.00                       # Data bus utilization in percentage for reads
system.mem_ctrls.busUtilWrite                    0.00                       # Data bus utilization in percentage for writes
system.mem_ctrls.avgRdQLen                       1.00                       # Average read queue length when enqueuing
system.mem_ctrls.avgWrQLen                      24.16                       # Average write queue length when enqueuing
system.mem_ctrls.readRowHits                    28721                       # Number of row buffer hits during reads
system.mem_ctrls.writeRowHits                    5260                       # Number of row buffer hits during writes
system.mem_ctrls.readRowHitRate                 80.23                       # Row buffer hit rate for reads
system.mem_ctrls.writeRowHitRate                71.22                       # Row buffer hit rate for writes
system.mem_ctrls.avgGap                   84824676.52                       # Average gap between requests
system.mem_ctrls.pageHitRate                    78.69                       # Row buffer hit rate, read and write combined
system.mem_ctrls_0.actEnergy                 55838160                       # Energy for activate commands per rank (pJ)
system.mem_ctrls_0.preEnergy                 30467250                       # Energy for precharge commands per rank (pJ)
system.mem_ctrls_0.readEnergy               249529800                       # Energy for read commands per rank (pJ)
system.mem_ctrls_0.writeEnergy               28434240                       # Energy for write commands per rank (pJ)
system.mem_ctrls_0.refreshEnergy         258822966480                       # Energy for refresh commands per rank (pJ)
system.mem_ctrls_0.actBackEnergy          91415483370                       # Energy for active background per rank (pJ)
system.mem_ctrls_0.preBackEnergy         2297418878250                       # Energy for precharge background per rank (pJ)
system.mem_ctrls_0.totalEnergy           2648021597550                       # Total energy per rank (pJ)
system.mem_ctrls_0.averagePower            668.240108                       # Core power per rank (mW)
system.mem_ctrls_0.memoryStateTime::IDLE 3820092534750                       # Time in different power states
system.mem_ctrls_0.memoryStateTime::REF  132163720000                       # Time in different power states
system.mem_ctrls_0.memoryStateTime::PRE_PDN            0                       # Time in different power states
system.mem_ctrls_0.memoryStateTime::ACT    5664339250                       # Time in different power states
system.mem_ctrls_0.memoryStateTime::ACT_PDN            0                       # Time in different power states
system.mem_ctrls_1.actEnergy                 54016200                       # Energy for activate commands per rank (pJ)
system.mem_ctrls_1.preEnergy                 29473125                       # Energy for precharge commands per rank (pJ)
system.mem_ctrls_1.readEnergy               252564000                       # Energy for read commands per rank (pJ)
system.mem_ctrls_1.writeEnergy               19323360                       # Energy for write commands per rank (pJ)
system.mem_ctrls_1.refreshEnergy         258822966480                       # Energy for refresh commands per rank (pJ)
system.mem_ctrls_1.actBackEnergy          91739523240                       # Energy for active background per rank (pJ)
system.mem_ctrls_1.preBackEnergy         2297134632750                       # Energy for precharge background per rank (pJ)
system.mem_ctrls_1.totalEnergy           2648052499155                       # Total energy per rank (pJ)
system.mem_ctrls_1.averagePower            668.247906                       # Core power per rank (mW)
system.mem_ctrls_1.memoryStateTime::IDLE 3819770521500                       # Time in different power states
system.mem_ctrls_1.memoryStateTime::REF  132163720000                       # Time in different power states
system.mem_ctrls_1.memoryStateTime::PRE_PDN            0                       # Time in different power states
system.mem_ctrls_1.memoryStateTime::ACT    5984570000                       # Time in different power states
system.mem_ctrls_1.memoryStateTime::ACT_PDN            0                       # Time in different power states
system.cpu_voltage_domain.voltage                   1                       # Voltage in Volts
system.cpu_clk_domain.clock                       500                       # Clock period in ticks
system.cpu0.apic_clk_domain.clock                8000                       # Clock period in ticks
system.cpu0.numCycles                      7919709456                       # number of cpu cycles simulated
system.cpu0.numWorkItemsStarted                     0                       # number of work items this cpu started
system.cpu0.numWorkItemsCompleted                   0                       # number of work items this cpu completed
system.cpu0.kern.inst.arm                           0                       # number of arm instructions executed
system.cpu0.kern.inst.quiesce                       0                       # number of quiesce instructions executed
system.cpu0.committedInsts                 1994594222                       # Number of instructions committed
system.cpu0.committedOps                   3393253343                       # Number of ops (including micro ops) committed
system.cpu0.num_int_alu_accesses           2757893557                       # Number of integer alu accesses
system.cpu0.num_fp_alu_accesses            1010088632                       # Number of float alu accesses
system.cpu0.num_func_calls                   49958260                       # number of times a function call or return occured
system.cpu0.num_conditional_control_insts    199830254                       # number of instructions that are conditional controls
system.cpu0.num_int_insts                  2757893557                       # number of integer instructions
system.cpu0.num_fp_insts                   1010088632                       # number of float instructions
system.cpu0.num_int_register_reads         5219001889                       # number of times the integer registers were read
system.cpu0.num_int_register_writes        2052873803                       # number of times the integer registers were written
system.cpu0.num_fp_register_reads          1701898935                       # number of times the floating registers were read
system.cpu0.num_fp_register_writes          899765754                       # number of times the floating registers were written
system.cpu0.num_cc_register_reads          1288782924                       # number of times the CC registers were read
system.cpu0.num_cc_register_writes         1039470398                       # number of times the CC registers were written
system.cpu0.num_mem_refs                    738329325                       # number of memory refs
system.cpu0.num_load_insts                  571861770                       # Number of load instructions
system.cpu0.num_store_insts                 166467555                       # Number of store instructions
system.cpu0.num_idle_cycles              71186295.259155                       # Number of idle cycles
system.cpu0.num_busy_cycles              7848523160.740846                       # Number of busy cycles
system.cpu0.not_idle_fraction                0.991012                       # Percentage of non-idle cycles
system.cpu0.idle_fraction                    0.008988                       # Percentage of idle cycles
system.cpu0.Branches                        261203810                       # Number of branches fetched
system.cpu0.op_class::No_OpClass              1514462      0.04%      0.04% # Class of executed instruction
system.cpu0.op_class::IntAlu               2189535273     64.53%     64.57% # Class of executed instruction
system.cpu0.op_class::IntMult                24044607      0.71%     65.28% # Class of executed instruction
system.cpu0.op_class::IntDiv                   210376      0.01%     65.29% # Class of executed instruction
system.cpu0.op_class::FloatAdd              439619455     12.96%     78.24% # Class of executed instruction
system.cpu0.op_class::FloatCmp                      0      0.00%     78.24% # Class of executed instruction
system.cpu0.op_class::FloatCvt                      0      0.00%     78.24% # Class of executed instruction
system.cpu0.op_class::FloatMult                     0      0.00%     78.24% # Class of executed instruction
system.cpu0.op_class::FloatDiv                      0      0.00%     78.24% # Class of executed instruction
system.cpu0.op_class::FloatSqrt                     0      0.00%     78.24% # Class of executed instruction
system.cpu0.op_class::SimdAdd                       0      0.00%     78.24% # Class of executed instruction
system.cpu0.op_class::SimdAddAcc                    0      0.00%     78.24% # Class of executed instruction
system.cpu0.op_class::SimdAlu                       0      0.00%     78.24% # Class of executed instruction
system.cpu0.op_class::SimdCmp                       0      0.00%     78.24% # Class of executed instruction
system.cpu0.op_class::SimdCvt                       0      0.00%     78.24% # Class of executed instruction
system.cpu0.op_class::SimdMisc                      0      0.00%     78.24% # Class of executed instruction
system.cpu0.op_class::SimdMult                      0      0.00%     78.24% # Class of executed instruction
system.cpu0.op_class::SimdMultAcc                   0      0.00%     78.24% # Class of executed instruction
system.cpu0.op_class::SimdShift                     0      0.00%     78.24% # Class of executed instruction
system.cpu0.op_class::SimdShiftAcc                  0      0.00%     78.24% # Class of executed instruction
system.cpu0.op_class::SimdSqrt                      0      0.00%     78.24% # Class of executed instruction
system.cpu0.op_class::SimdFloatAdd                  0      0.00%     78.24% # Class of executed instruction
system.cpu0.op_class::SimdFloatAlu                  0      0.00%     78.24% # Class of executed instruction
system.cpu0.op_class::SimdFloatCmp                  0      0.00%     78.24% # Class of executed instruction
system.cpu0.op_class::SimdFloatCvt                  0      0.00%     78.24% # Class of executed instruction
system.cpu0.op_class::SimdFloatDiv                  0      0.00%     78.24% # Class of executed instruction
system.cpu0.op_class::SimdFloatMisc                 0      0.00%     78.24% # Class of executed instruction
system.cpu0.op_class::SimdFloatMult                 0      0.00%     78.24% # Class of executed instruction
system.cpu0.op_class::SimdFloatMultAcc              0      0.00%     78.24% # Class of executed instruction
system.cpu0.op_class::SimdFloatSqrt                 0      0.00%     78.24% # Class of executed instruction
system.cpu0.op_class::MemRead               571861770     16.85%     95.09% # Class of executed instruction
system.cpu0.op_class::MemWrite              166467555      4.91%    100.00% # Class of executed instruction
system.cpu0.op_class::IprAccess                     0      0.00%    100.00% # Class of executed instruction
system.cpu0.op_class::InstPrefetch                  0      0.00%    100.00% # Class of executed instruction
system.cpu0.op_class::total                3393253498                       # Class of executed instruction
system.cpu1.apic_clk_domain.clock                8000                       # Clock period in ticks
system.cpu1.numCycles                      7915559568                       # number of cpu cycles simulated
system.cpu1.numWorkItemsStarted                     0                       # number of work items this cpu started
system.cpu1.numWorkItemsCompleted                   0                       # number of work items this cpu completed
system.cpu1.kern.inst.arm                           0                       # number of arm instructions executed
system.cpu1.kern.inst.quiesce                       0                       # number of quiesce instructions executed
system.cpu1.committedInsts                    2962149                       # Number of instructions committed
system.cpu1.committedOps                      6351317                       # Number of ops (including micro ops) committed
system.cpu1.num_int_alu_accesses              6214638                       # Number of integer alu accesses
system.cpu1.num_fp_alu_accesses                    65                       # Number of float alu accesses
system.cpu1.num_func_calls                     172975                       # number of times a function call or return occured
system.cpu1.num_conditional_control_insts       455744                       # number of instructions that are conditional controls
system.cpu1.num_int_insts                     6214638                       # number of integer instructions
system.cpu1.num_fp_insts                           65                       # number of float instructions
system.cpu1.num_int_register_reads           12596332                       # number of times the integer registers were read
system.cpu1.num_int_register_writes           5152681                       # number of times the integer registers were written
system.cpu1.num_fp_register_reads                  82                       # number of times the floating registers were read
system.cpu1.num_fp_register_writes                 44                       # number of times the floating registers were written
system.cpu1.num_cc_register_reads             3620388                       # number of times the CC registers were read
system.cpu1.num_cc_register_writes            1901539                       # number of times the CC registers were written
system.cpu1.num_mem_refs                      1498461                       # number of memory refs
system.cpu1.num_load_insts                     931606                       # Number of load instructions
system.cpu1.num_store_insts                    566855                       # Number of store instructions
system.cpu1.num_idle_cycles              7900519928.570094                       # Number of idle cycles
system.cpu1.num_busy_cycles              15039639.429906                       # Number of busy cycles
system.cpu1.not_idle_fraction                0.001900                       # Percentage of non-idle cycles
system.cpu1.idle_fraction                    0.998100                       # Percentage of idle cycles
system.cpu1.Branches                           684922                       # Number of branches fetched
system.cpu1.op_class::No_OpClass               115793      1.82%      1.82% # Class of executed instruction
system.cpu1.op_class::IntAlu                  4682638     73.73%     75.55% # Class of executed instruction
system.cpu1.op_class::IntMult                   12687      0.20%     75.75% # Class of executed instruction
system.cpu1.op_class::IntDiv                    41736      0.66%     76.41% # Class of executed instruction
system.cpu1.op_class::FloatAdd                     22      0.00%     76.41% # Class of executed instruction
system.cpu1.op_class::FloatCmp                      0      0.00%     76.41% # Class of executed instruction
system.cpu1.op_class::FloatCvt                      0      0.00%     76.41% # Class of executed instruction
system.cpu1.op_class::FloatMult                     0      0.00%     76.41% # Class of executed instruction
system.cpu1.op_class::FloatDiv                      0      0.00%     76.41% # Class of executed instruction
system.cpu1.op_class::FloatSqrt                     0      0.00%     76.41% # Class of executed instruction
system.cpu1.op_class::SimdAdd                       0      0.00%     76.41% # Class of executed instruction
system.cpu1.op_class::SimdAddAcc                    0      0.00%     76.41% # Class of executed instruction
system.cpu1.op_class::SimdAlu                       0      0.00%     76.41% # Class of executed instruction
system.cpu1.op_class::SimdCmp                       0      0.00%     76.41% # Class of executed instruction
system.cpu1.op_class::SimdCvt                       0      0.00%     76.41% # Class of executed instruction
system.cpu1.op_class::SimdMisc                      0      0.00%     76.41% # Class of executed instruction
system.cpu1.op_class::SimdMult                      0      0.00%     76.41% # Class of executed instruction
system.cpu1.op_class::SimdMultAcc                   0      0.00%     76.41% # Class of executed instruction
system.cpu1.op_class::SimdShift                     0      0.00%     76.41% # Class of executed instruction
system.cpu1.op_class::SimdShiftAcc                  0      0.00%     76.41% # Class of executed instruction
system.cpu1.op_class::SimdSqrt                      0      0.00%     76.41% # Class of executed instruction
system.cpu1.op_class::SimdFloatAdd                  0      0.00%     76.41% # Class of executed instruction
system.cpu1.op_class::SimdFloatAlu                  0      0.00%     76.41% # Class of executed instruction
system.cpu1.op_class::SimdFloatCmp                  0      0.00%     76.41% # Class of executed instruction
system.cpu1.op_class::SimdFloatCvt                  0      0.00%     76.41% # Class of executed instruction
system.cpu1.op_class::SimdFloatDiv                  0      0.00%     76.41% # Class of executed instruction
system.cpu1.op_class::SimdFloatMisc                 0      0.00%     76.41% # Class of executed instruction
system.cpu1.op_class::SimdFloatMult                 0      0.00%     76.41% # Class of executed instruction
system.cpu1.op_class::SimdFloatMultAcc              0      0.00%     76.41% # Class of executed instruction
system.cpu1.op_class::SimdFloatSqrt                 0      0.00%     76.41% # Class of executed instruction
system.cpu1.op_class::MemRead                  931606     14.67%     91.08% # Class of executed instruction
system.cpu1.op_class::MemWrite                 566855      8.92%    100.00% # Class of executed instruction
system.cpu1.op_class::IprAccess                     0      0.00%    100.00% # Class of executed instruction
system.cpu1.op_class::InstPrefetch                  0      0.00%    100.00% # Class of executed instruction
system.cpu1.op_class::total                   6351337                       # Class of executed instruction
system.cpu2.apic_clk_domain.clock                8000                       # Clock period in ticks
system.cpu2.numCycles                      7915945198                       # number of cpu cycles simulated
system.cpu2.numWorkItemsStarted                     0                       # number of work items this cpu started
system.cpu2.numWorkItemsCompleted                   0                       # number of work items this cpu completed
system.cpu2.kern.inst.arm                           0                       # number of arm instructions executed
system.cpu2.kern.inst.quiesce                       0                       # number of quiesce instructions executed
system.cpu2.committedInsts                    3527312                       # Number of instructions committed
system.cpu2.committedOps                      7371077                       # Number of ops (including micro ops) committed
system.cpu2.num_int_alu_accesses              7222987                       # Number of integer alu accesses
system.cpu2.num_fp_alu_accesses                  1837                       # Number of float alu accesses
system.cpu2.num_func_calls                     188466                       # number of times a function call or return occured
system.cpu2.num_conditional_control_insts       545243                       # number of instructions that are conditional controls
system.cpu2.num_int_insts                     7222987                       # number of integer instructions
system.cpu2.num_fp_insts                         1837                       # number of float instructions
system.cpu2.num_int_register_reads           14658159                       # number of times the integer registers were read
system.cpu2.num_int_register_writes           5967128                       # number of times the integer registers were written
system.cpu2.num_fp_register_reads                3081                       # number of times the floating registers were read
system.cpu2.num_fp_register_writes               1457                       # number of times the floating registers were written
system.cpu2.num_cc_register_reads             4203571                       # number of times the CC registers were read
system.cpu2.num_cc_register_writes            2269821                       # number of times the CC registers were written
system.cpu2.num_mem_refs                      1725422                       # number of memory refs
system.cpu2.num_load_insts                    1069038                       # Number of load instructions
system.cpu2.num_store_insts                    656384                       # Number of store instructions
system.cpu2.num_idle_cycles              7897885082.290431                       # Number of idle cycles
system.cpu2.num_busy_cycles              18060115.709569                       # Number of busy cycles
system.cpu2.not_idle_fraction                0.002281                       # Percentage of non-idle cycles
system.cpu2.idle_fraction                    0.997719                       # Percentage of idle cycles
system.cpu2.Branches                           797553                       # Number of branches fetched
system.cpu2.op_class::No_OpClass               121664      1.65%      1.65% # Class of executed instruction
system.cpu2.op_class::IntAlu                  5466051     74.15%     75.81% # Class of executed instruction
system.cpu2.op_class::IntMult                   13450      0.18%     75.99% # Class of executed instruction
system.cpu2.op_class::IntDiv                    43212      0.59%     76.57% # Class of executed instruction
system.cpu2.op_class::FloatAdd                   1366      0.02%     76.59% # Class of executed instruction
system.cpu2.op_class::FloatCmp                      0      0.00%     76.59% # Class of executed instruction
system.cpu2.op_class::FloatCvt                      0      0.00%     76.59% # Class of executed instruction
system.cpu2.op_class::FloatMult                     0      0.00%     76.59% # Class of executed instruction
system.cpu2.op_class::FloatDiv                      0      0.00%     76.59% # Class of executed instruction
system.cpu2.op_class::FloatSqrt                     0      0.00%     76.59% # Class of executed instruction
system.cpu2.op_class::SimdAdd                       0      0.00%     76.59% # Class of executed instruction
system.cpu2.op_class::SimdAddAcc                    0      0.00%     76.59% # Class of executed instruction
system.cpu2.op_class::SimdAlu                       0      0.00%     76.59% # Class of executed instruction
system.cpu2.op_class::SimdCmp                       0      0.00%     76.59% # Class of executed instruction
system.cpu2.op_class::SimdCvt                       0      0.00%     76.59% # Class of executed instruction
system.cpu2.op_class::SimdMisc                      0      0.00%     76.59% # Class of executed instruction
system.cpu2.op_class::SimdMult                      0      0.00%     76.59% # Class of executed instruction
system.cpu2.op_class::SimdMultAcc                   0      0.00%     76.59% # Class of executed instruction
system.cpu2.op_class::SimdShift                     0      0.00%     76.59% # Class of executed instruction
system.cpu2.op_class::SimdShiftAcc                  0      0.00%     76.59% # Class of executed instruction
system.cpu2.op_class::SimdSqrt                      0      0.00%     76.59% # Class of executed instruction
system.cpu2.op_class::SimdFloatAdd                  0      0.00%     76.59% # Class of executed instruction
system.cpu2.op_class::SimdFloatAlu                  0      0.00%     76.59% # Class of executed instruction
system.cpu2.op_class::SimdFloatCmp                  0      0.00%     76.59% # Class of executed instruction
system.cpu2.op_class::SimdFloatCvt                  0      0.00%     76.59% # Class of executed instruction
system.cpu2.op_class::SimdFloatDiv                  0      0.00%     76.59% # Class of executed instruction
system.cpu2.op_class::SimdFloatMisc                 0      0.00%     76.59% # Class of executed instruction
system.cpu2.op_class::SimdFloatMult                 0      0.00%     76.59% # Class of executed instruction
system.cpu2.op_class::SimdFloatMultAcc              0      0.00%     76.59% # Class of executed instruction
system.cpu2.op_class::SimdFloatSqrt                 0      0.00%     76.59% # Class of executed instruction
system.cpu2.op_class::MemRead                 1069038     14.50%     91.10% # Class of executed instruction
system.cpu2.op_class::MemWrite                 656384      8.90%    100.00% # Class of executed instruction
system.cpu2.op_class::IprAccess                     0      0.00%    100.00% # Class of executed instruction
system.cpu2.op_class::InstPrefetch                  0      0.00%    100.00% # Class of executed instruction
system.cpu2.op_class::total                   7371165                       # Class of executed instruction
system.cpu3.apic_clk_domain.clock                8000                       # Clock period in ticks
system.cpu3.numCycles                      7915643310                       # number of cpu cycles simulated
system.cpu3.numWorkItemsStarted                     0                       # number of work items this cpu started
system.cpu3.numWorkItemsCompleted                   0                       # number of work items this cpu completed
system.cpu3.kern.inst.arm                           0                       # number of arm instructions executed
system.cpu3.kern.inst.quiesce                       0                       # number of quiesce instructions executed
system.cpu3.committedInsts                   19348787                       # Number of instructions committed
system.cpu3.committedOps                     34214656                       # Number of ops (including micro ops) committed
system.cpu3.num_int_alu_accesses             28816315                       # Number of integer alu accesses
system.cpu3.num_fp_alu_accesses               8399271                       # Number of float alu accesses
system.cpu3.num_func_calls                     589537                       # number of times a function call or return occured
system.cpu3.num_conditional_control_insts      2050521                       # number of instructions that are conditional controls
system.cpu3.num_int_insts                    28816315                       # number of integer instructions
system.cpu3.num_fp_insts                      8399271                       # number of float instructions
system.cpu3.num_int_register_reads           55617738                       # number of times the integer registers were read
system.cpu3.num_int_register_writes          21932797                       # number of times the integer registers were written
system.cpu3.num_fp_register_reads            14064247                       # number of times the floating registers were read
system.cpu3.num_fp_register_writes            7474237                       # number of times the floating registers were written
system.cpu3.num_cc_register_reads            14005994                       # number of times the CC registers were read
system.cpu3.num_cc_register_writes           10294189                       # number of times the CC registers were written
system.cpu3.num_mem_refs                      7670788                       # number of memory refs
system.cpu3.num_load_insts                    5713555                       # Number of load instructions
system.cpu3.num_store_insts                   1957233                       # Number of store instructions
system.cpu3.num_idle_cycles              7835855399.644520                       # Number of idle cycles
system.cpu3.num_busy_cycles              79787910.355480                       # Number of busy cycles
system.cpu3.not_idle_fraction                0.010080                       # Percentage of non-idle cycles
system.cpu3.idle_fraction                    0.989920                       # Percentage of idle cycles
system.cpu3.Branches                          2792888                       # Number of branches fetched
system.cpu3.op_class::No_OpClass               128162      0.37%      0.37% # Class of executed instruction
system.cpu3.op_class::IntAlu                 22540395     65.88%     66.25% # Class of executed instruction
system.cpu3.op_class::IntMult                  213650      0.62%     66.88% # Class of executed instruction
system.cpu3.op_class::IntDiv                    43507      0.13%     67.01% # Class of executed instruction
system.cpu3.op_class::FloatAdd                3618197     10.57%     77.58% # Class of executed instruction
system.cpu3.op_class::FloatCmp                      0      0.00%     77.58% # Class of executed instruction
system.cpu3.op_class::FloatCvt                      0      0.00%     77.58% # Class of executed instruction
system.cpu3.op_class::FloatMult                     0      0.00%     77.58% # Class of executed instruction
system.cpu3.op_class::FloatDiv                      0      0.00%     77.58% # Class of executed instruction
system.cpu3.op_class::FloatSqrt                     0      0.00%     77.58% # Class of executed instruction
system.cpu3.op_class::SimdAdd                       0      0.00%     77.58% # Class of executed instruction
system.cpu3.op_class::SimdAddAcc                    0      0.00%     77.58% # Class of executed instruction
system.cpu3.op_class::SimdAlu                       0      0.00%     77.58% # Class of executed instruction
system.cpu3.op_class::SimdCmp                       0      0.00%     77.58% # Class of executed instruction
system.cpu3.op_class::SimdCvt                       0      0.00%     77.58% # Class of executed instruction
system.cpu3.op_class::SimdMisc                      0      0.00%     77.58% # Class of executed instruction
system.cpu3.op_class::SimdMult                      0      0.00%     77.58% # Class of executed instruction
system.cpu3.op_class::SimdMultAcc                   0      0.00%     77.58% # Class of executed instruction
system.cpu3.op_class::SimdShift                     0      0.00%     77.58% # Class of executed instruction
system.cpu3.op_class::SimdShiftAcc                  0      0.00%     77.58% # Class of executed instruction
system.cpu3.op_class::SimdSqrt                      0      0.00%     77.58% # Class of executed instruction
system.cpu3.op_class::SimdFloatAdd                  0      0.00%     77.58% # Class of executed instruction
system.cpu3.op_class::SimdFloatAlu                  0      0.00%     77.58% # Class of executed instruction
system.cpu3.op_class::SimdFloatCmp                  0      0.00%     77.58% # Class of executed instruction
system.cpu3.op_class::SimdFloatCvt                  0      0.00%     77.58% # Class of executed instruction
system.cpu3.op_class::SimdFloatDiv                  0      0.00%     77.58% # Class of executed instruction
system.cpu3.op_class::SimdFloatMisc                 0      0.00%     77.58% # Class of executed instruction
system.cpu3.op_class::SimdFloatMult                 0      0.00%     77.58% # Class of executed instruction
system.cpu3.op_class::SimdFloatMultAcc              0      0.00%     77.58% # Class of executed instruction
system.cpu3.op_class::SimdFloatSqrt                 0      0.00%     77.58% # Class of executed instruction
system.cpu3.op_class::MemRead                 5713555     16.70%     94.28% # Class of executed instruction
system.cpu3.op_class::MemWrite                1957233      5.72%    100.00% # Class of executed instruction
system.cpu3.op_class::IprAccess                     0      0.00%    100.00% # Class of executed instruction
system.cpu3.op_class::InstPrefetch                  0      0.00%    100.00% # Class of executed instruction
system.cpu3.op_class::total                  34214699                       # Class of executed instruction
system.iobus.trans_dist::ReadReq                  113                       # Transaction distribution
system.iobus.trans_dist::ReadResp                 113                       # Transaction distribution
system.iobus.trans_dist::WriteReq                4088                       # Transaction distribution
system.iobus.trans_dist::WriteResp               4088                       # Transaction distribution
system.iobus.trans_dist::MessageReq                19                       # Transaction distribution
system.iobus.trans_dist::MessageResp               19                       # Transaction distribution
system.iobus.pkt_count_system.pc.south_bridge.io_apic.int_master::system.ruby.l0_cntrl0.sequencer.pio-slave-port            4                       # Packet count per connected master and slave (bytes)
system.iobus.pkt_count_system.pc.south_bridge.io_apic.int_master::system.ruby.l0_cntrl1.sequencer.pio-slave-port            4                       # Packet count per connected master and slave (bytes)
system.iobus.pkt_count_system.pc.south_bridge.io_apic.int_master::system.ruby.l0_cntrl2.sequencer.pio-slave-port            4                       # Packet count per connected master and slave (bytes)
system.iobus.pkt_count_system.pc.south_bridge.io_apic.int_master::system.ruby.l0_cntrl3.sequencer.pio-slave-port            4                       # Packet count per connected master and slave (bytes)
system.iobus.pkt_count_system.pc.south_bridge.io_apic.int_master::total           16                       # Packet count per connected master and slave (bytes)
system.iobus.pkt_count_system.ruby.l0_cntrl0.sequencer.mem-master-port::system.pc.south_bridge.ide.pio           12                       # Packet count per connected master and slave (bytes)
system.iobus.pkt_count_system.ruby.l0_cntrl0.sequencer.mem-master-port::system.pc.south_bridge.io_apic.pio            8                       # Packet count per connected master and slave (bytes)
system.iobus.pkt_count_system.ruby.l0_cntrl0.sequencer.mem-master-port::system.ruby.l0_cntrl0.sequencer.pio-slave-port         2010                       # Packet count per connected master and slave (bytes)
system.iobus.pkt_count_system.ruby.l0_cntrl0.sequencer.mem-master-port::system.ruby.l0_cntrl1.sequencer.pio-slave-port            6                       # Packet count per connected master and slave (bytes)
system.iobus.pkt_count_system.ruby.l0_cntrl0.sequencer.mem-master-port::system.ruby.l0_cntrl2.sequencer.pio-slave-port            2                       # Packet count per connected master and slave (bytes)
system.iobus.pkt_count_system.ruby.l0_cntrl0.sequencer.mem-master-port::system.ruby.l0_cntrl3.sequencer.pio-slave-port            4                       # Packet count per connected master and slave (bytes)
system.iobus.pkt_count_system.ruby.l0_cntrl0.sequencer.mem-master-port::total         2042                       # Packet count per connected master and slave (bytes)
system.iobus.pkt_count_system.ruby.l0_cntrl1.sequencer.mem-master-port::system.pc.south_bridge.ide.pio           80                       # Packet count per connected master and slave (bytes)
system.iobus.pkt_count_system.ruby.l0_cntrl1.sequencer.mem-master-port::system.pc.south_bridge.io_apic.pio            8                       # Packet count per connected master and slave (bytes)
system.iobus.pkt_count_system.ruby.l0_cntrl1.sequencer.mem-master-port::system.pc.com_1.pio            2                       # Packet count per connected master and slave (bytes)
system.iobus.pkt_count_system.ruby.l0_cntrl1.sequencer.mem-master-port::system.ruby.l0_cntrl1.sequencer.pio-slave-port         2000                       # Packet count per connected master and slave (bytes)
system.iobus.pkt_count_system.ruby.l0_cntrl1.sequencer.mem-master-port::system.ruby.l0_cntrl2.sequencer.pio-slave-port            2                       # Packet count per connected master and slave (bytes)
system.iobus.pkt_count_system.ruby.l0_cntrl1.sequencer.mem-master-port::total         2092                       # Packet count per connected master and slave (bytes)
system.iobus.pkt_count_system.ruby.l0_cntrl2.sequencer.mem-master-port::system.pc.south_bridge.ide.pio           46                       # Packet count per connected master and slave (bytes)
system.iobus.pkt_count_system.ruby.l0_cntrl2.sequencer.mem-master-port::system.pc.south_bridge.io_apic.pio            6                       # Packet count per connected master and slave (bytes)
system.iobus.pkt_count_system.ruby.l0_cntrl2.sequencer.mem-master-port::system.pc.com_1.pio          174                       # Packet count per connected master and slave (bytes)
system.iobus.pkt_count_system.ruby.l0_cntrl2.sequencer.mem-master-port::system.ruby.l0_cntrl1.sequencer.pio-slave-port            2                       # Packet count per connected master and slave (bytes)
system.iobus.pkt_count_system.ruby.l0_cntrl2.sequencer.mem-master-port::system.ruby.l0_cntrl2.sequencer.pio-slave-port         2000                       # Packet count per connected master and slave (bytes)
system.iobus.pkt_count_system.ruby.l0_cntrl2.sequencer.mem-master-port::system.ruby.l0_cntrl3.sequencer.pio-slave-port            2                       # Packet count per connected master and slave (bytes)
system.iobus.pkt_count_system.ruby.l0_cntrl2.sequencer.mem-master-port::total         2230                       # Packet count per connected master and slave (bytes)
system.iobus.pkt_count_system.ruby.l0_cntrl3.sequencer.mem-master-port::system.pc.south_bridge.ide.pio           46                       # Packet count per connected master and slave (bytes)
system.iobus.pkt_count_system.ruby.l0_cntrl3.sequencer.mem-master-port::system.pc.south_bridge.io_apic.pio            8                       # Packet count per connected master and slave (bytes)
system.iobus.pkt_count_system.ruby.l0_cntrl3.sequencer.mem-master-port::system.ruby.l0_cntrl0.sequencer.pio-slave-port            2                       # Packet count per connected master and slave (bytes)
system.iobus.pkt_count_system.ruby.l0_cntrl3.sequencer.mem-master-port::system.ruby.l0_cntrl1.sequencer.pio-slave-port            2                       # Packet count per connected master and slave (bytes)
system.iobus.pkt_count_system.ruby.l0_cntrl3.sequencer.mem-master-port::system.ruby.l0_cntrl3.sequencer.pio-slave-port         2002                       # Packet count per connected master and slave (bytes)
system.iobus.pkt_count_system.ruby.l0_cntrl3.sequencer.mem-master-port::total         2060                       # Packet count per connected master and slave (bytes)
system.iobus.pkt_count::total                    8440                       # Packet count per connected master and slave (bytes)
system.iobus.pkt_size_system.pc.south_bridge.io_apic.int_master::system.ruby.l0_cntrl0.sequencer.pio-slave-port            8                       # Cumulative packet size per connected master and slave (bytes)
system.iobus.pkt_size_system.pc.south_bridge.io_apic.int_master::system.ruby.l0_cntrl1.sequencer.pio-slave-port            8                       # Cumulative packet size per connected master and slave (bytes)
system.iobus.pkt_size_system.pc.south_bridge.io_apic.int_master::system.ruby.l0_cntrl2.sequencer.pio-slave-port            8                       # Cumulative packet size per connected master and slave (bytes)
system.iobus.pkt_size_system.pc.south_bridge.io_apic.int_master::system.ruby.l0_cntrl3.sequencer.pio-slave-port            8                       # Cumulative packet size per connected master and slave (bytes)
system.iobus.pkt_size_system.pc.south_bridge.io_apic.int_master::total           32                       # Cumulative packet size per connected master and slave (bytes)
system.iobus.pkt_size_system.ruby.l0_cntrl0.sequencer.mem-master-port::system.pc.south_bridge.ide.pio            6                       # Cumulative packet size per connected master and slave (bytes)
system.iobus.pkt_size_system.ruby.l0_cntrl0.sequencer.mem-master-port::system.pc.south_bridge.io_apic.pio           16                       # Cumulative packet size per connected master and slave (bytes)
system.iobus.pkt_size_system.ruby.l0_cntrl0.sequencer.mem-master-port::system.ruby.l0_cntrl0.sequencer.pio-slave-port         4020                       # Cumulative packet size per connected master and slave (bytes)
system.iobus.pkt_size_system.ruby.l0_cntrl0.sequencer.mem-master-port::system.ruby.l0_cntrl1.sequencer.pio-slave-port           12                       # Cumulative packet size per connected master and slave (bytes)
system.iobus.pkt_size_system.ruby.l0_cntrl0.sequencer.mem-master-port::system.ruby.l0_cntrl2.sequencer.pio-slave-port            4                       # Cumulative packet size per connected master and slave (bytes)
system.iobus.pkt_size_system.ruby.l0_cntrl0.sequencer.mem-master-port::system.ruby.l0_cntrl3.sequencer.pio-slave-port            8                       # Cumulative packet size per connected master and slave (bytes)
system.iobus.pkt_size_system.ruby.l0_cntrl0.sequencer.mem-master-port::total         4066                       # Cumulative packet size per connected master and slave (bytes)
system.iobus.pkt_size_system.ruby.l0_cntrl1.sequencer.mem-master-port::system.pc.south_bridge.ide.pio           46                       # Cumulative packet size per connected master and slave (bytes)
system.iobus.pkt_size_system.ruby.l0_cntrl1.sequencer.mem-master-port::system.pc.south_bridge.io_apic.pio           16                       # Cumulative packet size per connected master and slave (bytes)
system.iobus.pkt_size_system.ruby.l0_cntrl1.sequencer.mem-master-port::system.pc.com_1.pio            1                       # Cumulative packet size per connected master and slave (bytes)
system.iobus.pkt_size_system.ruby.l0_cntrl1.sequencer.mem-master-port::system.ruby.l0_cntrl1.sequencer.pio-slave-port         4000                       # Cumulative packet size per connected master and slave (bytes)
system.iobus.pkt_size_system.ruby.l0_cntrl1.sequencer.mem-master-port::system.ruby.l0_cntrl2.sequencer.pio-slave-port            4                       # Cumulative packet size per connected master and slave (bytes)
system.iobus.pkt_size_system.ruby.l0_cntrl1.sequencer.mem-master-port::total         4067                       # Cumulative packet size per connected master and slave (bytes)
system.iobus.pkt_size_system.ruby.l0_cntrl2.sequencer.mem-master-port::system.pc.south_bridge.ide.pio           26                       # Cumulative packet size per connected master and slave (bytes)
system.iobus.pkt_size_system.ruby.l0_cntrl2.sequencer.mem-master-port::system.pc.south_bridge.io_apic.pio           12                       # Cumulative packet size per connected master and slave (bytes)
system.iobus.pkt_size_system.ruby.l0_cntrl2.sequencer.mem-master-port::system.pc.com_1.pio           87                       # Cumulative packet size per connected master and slave (bytes)
system.iobus.pkt_size_system.ruby.l0_cntrl2.sequencer.mem-master-port::system.ruby.l0_cntrl1.sequencer.pio-slave-port            4                       # Cumulative packet size per connected master and slave (bytes)
system.iobus.pkt_size_system.ruby.l0_cntrl2.sequencer.mem-master-port::system.ruby.l0_cntrl2.sequencer.pio-slave-port         4000                       # Cumulative packet size per connected master and slave (bytes)
system.iobus.pkt_size_system.ruby.l0_cntrl2.sequencer.mem-master-port::system.ruby.l0_cntrl3.sequencer.pio-slave-port            4                       # Cumulative packet size per connected master and slave (bytes)
system.iobus.pkt_size_system.ruby.l0_cntrl2.sequencer.mem-master-port::total         4133                       # Cumulative packet size per connected master and slave (bytes)
system.iobus.pkt_size_system.ruby.l0_cntrl3.sequencer.mem-master-port::system.pc.south_bridge.ide.pio           26                       # Cumulative packet size per connected master and slave (bytes)
system.iobus.pkt_size_system.ruby.l0_cntrl3.sequencer.mem-master-port::system.pc.south_bridge.io_apic.pio           16                       # Cumulative packet size per connected master and slave (bytes)
system.iobus.pkt_size_system.ruby.l0_cntrl3.sequencer.mem-master-port::system.ruby.l0_cntrl0.sequencer.pio-slave-port            4                       # Cumulative packet size per connected master and slave (bytes)
system.iobus.pkt_size_system.ruby.l0_cntrl3.sequencer.mem-master-port::system.ruby.l0_cntrl1.sequencer.pio-slave-port            4                       # Cumulative packet size per connected master and slave (bytes)
system.iobus.pkt_size_system.ruby.l0_cntrl3.sequencer.mem-master-port::system.ruby.l0_cntrl3.sequencer.pio-slave-port         4004                       # Cumulative packet size per connected master and slave (bytes)
system.iobus.pkt_size_system.ruby.l0_cntrl3.sequencer.mem-master-port::total         4054                       # Cumulative packet size per connected master and slave (bytes)
system.iobus.pkt_size::total                    16352                       # Cumulative packet size per connected master and slave (bytes)
system.iobus.reqLayer2.occupancy               166500                       # Layer occupancy (ticks)
system.iobus.reqLayer2.utilization                0.0                       # Layer utilization (%)
system.iobus.reqLayer8.occupancy                26496                       # Layer occupancy (ticks)
system.iobus.reqLayer8.utilization                0.0                       # Layer utilization (%)
system.iobus.reqLayer12.occupancy              113000                       # Layer occupancy (ticks)
system.iobus.reqLayer12.utilization               0.0                       # Layer utilization (%)
system.iobus.reqLayer17.occupancy             2286479                       # Layer occupancy (ticks)
system.iobus.reqLayer17.utilization               0.0                       # Layer utilization (%)
system.iobus.reqLayer18.occupancy             2510498                       # Layer occupancy (ticks)
system.iobus.reqLayer18.utilization               0.0                       # Layer utilization (%)
system.iobus.reqLayer19.occupancy             2503497                       # Layer occupancy (ticks)
system.iobus.reqLayer19.utilization               0.0                       # Layer utilization (%)
system.iobus.reqLayer20.occupancy             2504993                       # Layer occupancy (ticks)
system.iobus.reqLayer20.utilization               0.0                       # Layer utilization (%)
system.iobus.respLayer0.occupancy               11996                       # Layer occupancy (ticks)
system.iobus.respLayer0.utilization               0.0                       # Layer utilization (%)
system.iobus.respLayer2.occupancy             1533000                       # Layer occupancy (ticks)
system.iobus.respLayer2.utilization               0.0                       # Layer utilization (%)
system.iobus.respLayer4.occupancy             1561000                       # Layer occupancy (ticks)
system.iobus.respLayer4.utilization               0.0                       # Layer utilization (%)
system.iobus.respLayer6.occupancy             1691000                       # Layer occupancy (ticks)
system.iobus.respLayer6.utilization               0.0                       # Layer utilization (%)
system.iobus.respLayer8.occupancy             1542500                       # Layer occupancy (ticks)
system.iobus.respLayer8.utilization               0.0                       # Layer utilization (%)
system.pc.south_bridge.ide.disks.dma_read_full_pages            1                       # Number of full page size DMA reads (not PRD).
system.pc.south_bridge.ide.disks.dma_read_bytes         4096                       # Number of bytes transfered via DMA reads (not PRD).
system.pc.south_bridge.ide.disks.dma_read_txs            1                       # Number of DMA read transactions (not PRD).
system.pc.south_bridge.ide.disks.dma_write_full_pages           45                       # Number of full page size DMA writes.
system.pc.south_bridge.ide.disks.dma_write_bytes       184320                       # Number of bytes transfered via DMA writes.
system.pc.south_bridge.ide.disks.dma_write_txs           45                       # Number of DMA write transactions.
system.ruby.clk_domain.clock                      500                       # Clock period in ticks
system.ruby.delayHist::bucket_size                  2                       # delay histogram for all message
system.ruby.delayHist::max_bucket                  19                       # delay histogram for all message
system.ruby.delayHist::samples              197610130                       # delay histogram for all message
system.ruby.delayHist::mean                  0.093282                       # delay histogram for all message
system.ruby.delayHist::stdev                 0.603722                       # delay histogram for all message
system.ruby.delayHist                    |   193000061     97.67%     97.67% |        5364      0.00%     97.67% |     4603391      2.33%    100.00% |         957      0.00%    100.00% |         113      0.00%    100.00% |         215      0.00%    100.00% |           4      0.00%    100.00% |          22      0.00%    100.00% |           3      0.00%    100.00% |           0      0.00%    100.00% # delay histogram for all message
system.ruby.delayHist::total                197610130                       # delay histogram for all message
system.ruby.outstanding_req_hist_seqr::bucket_size            1                      
system.ruby.outstanding_req_hist_seqr::max_bucket            9                      
system.ruby.outstanding_req_hist_seqr::samples   3590722956                      
system.ruby.outstanding_req_hist_seqr::mean     1.000000                      
system.ruby.outstanding_req_hist_seqr::gmean     1.000000                      
system.ruby.outstanding_req_hist_seqr::stdev     0.000316                      
system.ruby.outstanding_req_hist_seqr    |           0      0.00%      0.00% |  3590722598    100.00%    100.00% |         358      0.00%    100.00% |           0      0.00%    100.00% |           0      0.00%    100.00% |           0      0.00%    100.00% |           0      0.00%    100.00% |           0      0.00%    100.00% |           0      0.00%    100.00% |           0      0.00%    100.00%
system.ruby.outstanding_req_hist_seqr::total   3590722956                      
system.ruby.latency_hist_seqr::bucket_size          256                      
system.ruby.latency_hist_seqr::max_bucket         2559                      
system.ruby.latency_hist_seqr::samples     3590722956                      
system.ruby.latency_hist_seqr::mean          1.215899                      
system.ruby.latency_hist_seqr::gmean         1.070068                      
system.ruby.latency_hist_seqr::stdev         1.517479                      
system.ruby.latency_hist_seqr            |  3590722188    100.00%    100.00% |         305      0.00%    100.00% |         442      0.00%    100.00% |          19      0.00%    100.00% |           1      0.00%    100.00% |           1      0.00%    100.00% |           0      0.00%    100.00% |           0      0.00%    100.00% |           0      0.00%    100.00% |           0      0.00%    100.00%
system.ruby.latency_hist_seqr::total       3590722956                      
system.ruby.hit_latency_hist_seqr::bucket_size            1                      
system.ruby.hit_latency_hist_seqr::max_bucket            9                      
[...]
system.ruby.L1Cache_Controller.I.Inv::total        21174                      
system.ruby.L1Cache_Controller.S.Load    |    25262608     95.56%     95.56% |      381564      1.44%     97.01% |      375802      1.42%     98.43% |      415263      1.57%    100.00%
system.ruby.L1Cache_Controller.S.Load::total     26435237                      
system.ruby.L1Cache_Controller.S.Store   |        5357     41.36%     41.36% |        2685     20.73%     62.09% |        3219     24.85%     86.94% |        1691     13.06%    100.00%
system.ruby.L1Cache_Controller.S.Store::total        12952                      
system.ruby.L1Cache_Controller.S.L0_Invalidate_Own |     1538617     86.84%     86.84% |       80112      4.52%     91.36% |       73509      4.15%     95.51% |       79491      4.49%    100.00%
system.ruby.L1Cache_Controller.S.L0_Invalidate_Own::total      1771729                      
system.ruby.L1Cache_Controller.S.L0_Invalidate_Else |         536      2.74%      2.74% |        7085     36.28%     39.03% |        7475     38.28%     77.30% |        4432     22.70%    100.00%
system.ruby.L1Cache_Controller.S.L0_Invalidate_Else::total        19528                      
system.ruby.L1Cache_Controller.SS.Load   |         235      5.34%      5.34% |        1339     30.40%     35.74% |        1458     33.11%     68.85% |        1372     31.15%    100.00%
system.ruby.L1Cache_Controller.SS.Load::total         4404                      
system.ruby.L1Cache_Controller.SS.Store  |         219     27.93%     27.93% |         130     16.58%     44.52% |         381     48.60%     93.11% |          54      6.89%    100.00%
system.ruby.L1Cache_Controller.SS.Store::total          784                      
system.ruby.L1Cache_Controller.SS.Inv    |        2004      6.00%      6.00% |        9428     28.23%     34.23% |       11881     35.57%     69.80% |       10087     30.20%    100.00%
system.ruby.L1Cache_Controller.SS.Inv::total        33400                      
system.ruby.L1Cache_Controller.SS.L1_Replacement |     1543141     86.59%     86.59% |       81683      4.58%     91.18% |       74963      4.21%     95.39% |       82234      4.61%    100.00%
system.ruby.L1Cache_Controller.SS.L1_Replacement::total      1782021                      
system.ruby.L1Cache_Controller.E.WriteBack |     6310995     96.08%     96.08% |       74482      1.13%     97.22% |       65928      1.00%     98.22% |      116901      1.78%    100.00%
system.ruby.L1Cache_Controller.E.WriteBack::total      6568306                      
system.ruby.L1Cache_Controller.E.L0_Invalidate_Own |      169764     97.38%     97.38% |         798      0.46%     97.84% |        1711      0.98%     98.82% |        2051      1.18%    100.00%
system.ruby.L1Cache_Controller.E.L0_Invalidate_Own::total       174324                      
system.ruby.L1Cache_Controller.E.L0_Invalidate_Else |          75      4.68%      4.68% |         181     11.28%     15.96% |         280     17.46%     33.42% |        1068     66.58%    100.00%
system.ruby.L1Cache_Controller.E.L0_Invalidate_Else::total         1604                      
system.ruby.L1Cache_Controller.EE.Inv    |           4     30.77%     30.77% |           8     61.54%     92.31% |           0      0.00%     92.31% |           1      7.69%    100.00%
system.ruby.L1Cache_Controller.EE.Inv::total           13                      
system.ruby.L1Cache_Controller.EE.L1_Replacement |      168463     97.60%     97.60% |         631      0.37%     97.97% |        1613      0.93%     98.90% |        1892      1.10%    100.00%
system.ruby.L1Cache_Controller.EE.L1_Replacement::total       172599                      
system.ruby.L1Cache_Controller.EE.Fwd_GETX |           2      8.70%      8.70% |           5     21.74%     30.43% |          10     43.48%     73.91% |           6     26.09%    100.00%
system.ruby.L1Cache_Controller.EE.Fwd_GETX::total           23                      
system.ruby.L1Cache_Controller.EE.Fwd_GETS |          50      3.62%      3.62% |         111      8.04%     11.67% |         210     15.22%     26.88% |        1009     73.12%    100.00%
system.ruby.L1Cache_Controller.EE.Fwd_GETS::total         1380                      
system.ruby.L1Cache_Controller.M.WriteBack |   103634798     98.49%     98.49% |      206958      0.20%     98.68% |      276328      0.26%     98.94% |     1110362      1.06%    100.00%
system.ruby.L1Cache_Controller.M.WriteBack::total    105228446                      
system.ruby.L1Cache_Controller.M.L0_Invalidate_Own |      377677     97.44%     97.44% |        2443      0.63%     98.07% |        2369      0.61%     98.68% |        5115      1.32%    100.00%
system.ruby.L1Cache_Controller.M.L0_Invalidate_Own::total       387604                      
system.ruby.L1Cache_Controller.M.L0_Invalidate_Else |        1376     14.63%     14.63% |        2432     25.86%     40.50% |        3225     34.30%     74.80% |        2370     25.20%    100.00%
system.ruby.L1Cache_Controller.M.L0_Invalidate_Else::total         9403                      
system.ruby.L1Cache_Controller.MM.Load   |    65761523     98.49%     98.49% |      117492      0.18%     98.67% |      169516      0.25%     98.92% |      717900      1.08%    100.00%
system.ruby.L1Cache_Controller.MM.Load::total     66766431                      
system.ruby.L1Cache_Controller.MM.Store  |    34508815     98.68%     98.68% |       61454      0.18%     98.85% |       69377      0.20%     99.05% |      331239      0.95%    100.00%
system.ruby.L1Cache_Controller.MM.Store::total     34970885                      
system.ruby.L1Cache_Controller.MM.Inv    |         281     30.64%     30.64% |         271     29.55%     60.20% |         159     17.34%     77.54% |         206     22.46%    100.00%
system.ruby.L1Cache_Controller.MM.Inv::total          917                      
system.ruby.L1Cache_Controller.MM.L1_Replacement |    10047799     96.41%     96.41% |      100575      0.96%     97.37% |       98481      0.94%     98.32% |      175554      1.68%    100.00%
system.ruby.L1Cache_Controller.MM.L1_Replacement::total     10422409                      
system.ruby.L1Cache_Controller.MM.Fwd_GETX |        1417     19.82%     19.82% |        1606     22.46%     42.27% |        2860     39.99%     82.27% |        1268     17.73%    100.00%
system.ruby.L1Cache_Controller.MM.Fwd_GETX::total         7151                      
system.ruby.L1Cache_Controller.MM.Fwd_GETS |        6110     22.24%     22.24% |        5161     18.79%     41.03% |        7382     26.87%     67.91% |        8815     32.09%    100.00%
system.ruby.L1Cache_Controller.MM.Fwd_GETS::total        27468                      
system.ruby.L1Cache_Controller.IS.Data_Exclusive |     6480828     96.09%     96.09% |       75475      1.12%     97.21% |       67932      1.01%     98.22% |      120002      1.78%    100.00%
system.ruby.L1Cache_Controller.IS.Data_Exclusive::total      6744237                      
system.ruby.L1Cache_Controller.IS.DataS_fromL1 |        2758      9.56%      9.56% |        9046     31.36%     40.92% |        7132     24.72%     65.64% |        9913     34.36%    100.00%
system.ruby.L1Cache_Controller.IS.DataS_fromL1::total        28849                      
system.ruby.L1Cache_Controller.IS.Data_all_Acks |     1541901     87.04%     87.04% |       79427      4.48%     91.53% |       75700      4.27%     95.80% |       74385      4.20%    100.00%
system.ruby.L1Cache_Controller.IS.Data_all_Acks::total      1771413                      
system.ruby.L1Cache_Controller.IM.Data   |        2896     29.36%     29.36% |        2232     22.63%     51.98% |        2623     26.59%     78.57% |        2114     21.43%    100.00%
system.ruby.L1Cache_Controller.IM.Data::total         9865                      
system.ruby.L1Cache_Controller.IM.Data_all_Acks |     3735041     96.65%     96.65% |       27832      0.72%     97.37% |       36809      0.95%     98.32% |       64835      1.68%    100.00%
system.ruby.L1Cache_Controller.IM.Data_all_Acks::total      3864517                      
system.ruby.L1Cache_Controller.SM.Inv    |           1     20.00%     20.00% |           0      0.00%     20.00% |           3     60.00%     80.00% |           1     20.00%    100.00%
system.ruby.L1Cache_Controller.SM.Inv::total            5                      
system.ruby.L1Cache_Controller.SM.Ack    |       18362     51.37%     51.37% |        6241     17.46%     68.83% |        7079     19.80%     88.64% |        4062     11.36%    100.00%
system.ruby.L1Cache_Controller.SM.Ack::total        35744                      
system.ruby.L1Cache_Controller.SM.Ack_all |        8471     35.90%     35.90% |        5047     21.39%     57.29% |        6220     26.36%     83.65% |        3858     16.35%    100.00%
system.ruby.L1Cache_Controller.SM.Ack_all::total        23596                      
system.ruby.L1Cache_Controller.M_I.Fwd_GETS |           0      0.00%      0.00% |           1    100.00%    100.00% |           0      0.00%    100.00% |           0      0.00%    100.00%
system.ruby.L1Cache_Controller.M_I.Fwd_GETS::total            1                      
system.ruby.L1Cache_Controller.M_I.WB_Ack |    10216262     96.43%     96.43% |      101205      0.96%     97.38% |      100094      0.94%     98.33% |      177446      1.67%    100.00%
system.ruby.L1Cache_Controller.M_I.WB_Ack::total     10595007                      
system.ruby.L1Cache_Controller.SINK_WB_ACK.WB_Ack |           0      0.00%      0.00% |           1    100.00%    100.00% |           0      0.00%    100.00% |           0      0.00%    100.00%
system.ruby.L1Cache_Controller.SINK_WB_ACK.WB_Ack::total            1                      
system.ruby.L1Cache_Controller.S_IL0.Store |           1    100.00%    100.00% |           0      0.00%    100.00% |           0      0.00%    100.00% |           0      0.00%    100.00%
system.ruby.L1Cache_Controller.S_IL0.Store::total            1                      
system.ruby.L1Cache_Controller.S_IL0.L0_Invalidate_Own |     1538617     86.84%     86.84% |       80112      4.52%     91.36% |       73509      4.15%     95.51% |       79491      4.49%    100.00%
system.ruby.L1Cache_Controller.S_IL0.L0_Invalidate_Own::total      1771729                      
system.ruby.L1Cache_Controller.S_IL0.L0_Invalidate_Else |         536      2.74%      2.74% |        7085     36.28%     39.03% |        7475     38.28%     77.30% |        4432     22.70%    100.00%
system.ruby.L1Cache_Controller.S_IL0.L0_Invalidate_Else::total        19528                      
system.ruby.L1Cache_Controller.S_IL0.L0_Ack |     1539153     85.93%     85.93% |       87197      4.87%     90.79% |       80984      4.52%     95.31% |       83923      4.69%    100.00%
system.ruby.L1Cache_Controller.S_IL0.L0_Ack::total      1791257                      
system.ruby.L1Cache_Controller.E_IL0.WriteBack |           0      0.00%      0.00% |           0      0.00%      0.00% |           1     50.00%     50.00% |           1     50.00%    100.00%
system.ruby.L1Cache_Controller.E_IL0.WriteBack::total            2                      
system.ruby.L1Cache_Controller.E_IL0.L0_DataAck |        1320     69.07%     69.07% |         224     11.72%     80.80% |         157      8.22%     89.01% |         210     10.99%    100.00%
system.ruby.L1Cache_Controller.E_IL0.L0_DataAck::total         1911                      
system.ruby.L1Cache_Controller.E_IL0.L0_Invalidate_Own |      169764     97.38%     97.38% |         798      0.46%     97.84% |        1711      0.98%     98.82% |        2051      1.18%    100.00%
system.ruby.L1Cache_Controller.E_IL0.L0_Invalidate_Own::total       174324                      
system.ruby.L1Cache_Controller.E_IL0.L0_Invalidate_Else |          75      4.68%      4.68% |         181     11.28%     15.96% |         280     17.46%     33.42% |        1068     66.58%    100.00%
system.ruby.L1Cache_Controller.E_IL0.L0_Invalidate_Else::total         1604                      
system.ruby.L1Cache_Controller.E_IL0.L0_Ack |      168519     96.84%     96.84% |         755      0.43%     97.28% |        1833      1.05%     98.33% |        2908      1.67%    100.00%
system.ruby.L1Cache_Controller.E_IL0.L0_Ack::total       174015                      
system.ruby.L1Cache_Controller.M_IL0.WriteBack |           0      0.00%      0.00% |           0      0.00%      0.00% |           1    100.00%    100.00% |           0      0.00%    100.00%
system.ruby.L1Cache_Controller.M_IL0.WriteBack::total            1                      
system.ruby.L1Cache_Controller.M_IL0.L0_DataAck |      111974     90.52%     90.52% |        3537      2.86%     93.38% |        4334      3.50%     96.88% |        3858      3.12%    100.00%
system.ruby.L1Cache_Controller.M_IL0.L0_DataAck::total       123703                      
system.ruby.L1Cache_Controller.M_IL0.L0_Invalidate_Own |      377677     97.44%     97.44% |        2443      0.63%     98.07% |        2369      0.61%     98.68% |        5115      1.32%    100.00%
system.ruby.L1Cache_Controller.M_IL0.L0_Invalidate_Own::total       387604                      
system.ruby.L1Cache_Controller.M_IL0.L0_Invalidate_Else |        1376     14.63%     14.63% |        2432     25.86%     40.50% |        3225     34.30%     74.80% |        2370     25.20%    100.00%
system.ruby.L1Cache_Controller.M_IL0.L0_Invalidate_Else::total         9403                      
system.ruby.L1Cache_Controller.M_IL0.L0_Ack |      267079     97.72%     97.72% |        1338      0.49%     98.21% |        1259      0.46%     98.67% |        3627      1.33%    100.00%
system.ruby.L1Cache_Controller.M_IL0.L0_Ack::total       273303                      
system.ruby.L1Cache_Controller.MM_IL0.Fwd_GETX |           0      0.00%      0.00% |           0      0.00%      0.00% |           1    100.00%    100.00% |           0      0.00%    100.00%
system.ruby.L1Cache_Controller.MM_IL0.Fwd_GETX::total            1                      
system.ruby.L1Cache_Controller.MM_IL0.Fwd_GETS |           0      0.00%      0.00% |           0      0.00%      0.00% |           1     50.00%     50.00% |           1     50.00%    100.00%
system.ruby.L1Cache_Controller.MM_IL0.Fwd_GETS::total            2                      
system.ruby.L1Cache_Controller.MM_IL0.L0_Ack |           0      0.00%      0.00% |           0      0.00%      0.00% |           2     66.67%     66.67% |           1     33.33%    100.00%
system.ruby.L1Cache_Controller.MM_IL0.L0_Ack::total            3                      
system.ruby.L2Cache_Controller.L1_GETS        8544914      0.00%      0.00%
system.ruby.L2Cache_Controller.L1_GETX        3874388      0.00%      0.00%
system.ruby.L2Cache_Controller.L1_UPGRADE        13737      0.00%      0.00%
system.ruby.L2Cache_Controller.L1_PUTX       10595009      0.00%      0.00%
system.ruby.L2Cache_Controller.L2_Replacement        42725      0.00%      0.00%
system.ruby.L2Cache_Controller.L2_Replacement_clean        21215      0.00%      0.00%
system.ruby.L2Cache_Controller.Mem_Data        100804      0.00%      0.00%
system.ruby.L2Cache_Controller.Mem_Ack          64025      0.00%      0.00%
system.ruby.L2Cache_Controller.WB_Data          14244      0.00%      0.00%
system.ruby.L2Cache_Controller.WB_Data_clean        15522      0.00%      0.00%
system.ruby.L2Cache_Controller.Ack               5801      0.00%      0.00%
system.ruby.L2Cache_Controller.Ack_all           3182      0.00%      0.00%
system.ruby.L2Cache_Controller.Unblock          28849      0.00%      0.00%
system.ruby.L2Cache_Controller.Exclusive_Unblock     10632350      0.00%      0.00%
system.ruby.L2Cache_Controller.MEM_Inv            170      0.00%      0.00%
system.ruby.L2Cache_Controller.NP.L1_GETS        49541      0.00%      0.00%
system.ruby.L2Cache_Controller.NP.L1_GETX        51263      0.00%      0.00%
system.ruby.L2Cache_Controller.SS.L1_GETS      1771344      0.00%      0.00%
system.ruby.L2Cache_Controller.SS.L1_GETX         9865      0.00%      0.00%
system.ruby.L2Cache_Controller.SS.L1_UPGRADE        13731      0.00%      0.00%
system.ruby.L2Cache_Controller.SS.L1_PUTX            1      0.00%      0.00%
system.ruby.L2Cache_Controller.SS.L2_Replacement          781      0.00%      0.00%
system.ruby.L2Cache_Controller.SS.L2_Replacement_clean         2349      0.00%      0.00%
system.ruby.L2Cache_Controller.SS.MEM_Inv           39      0.00%      0.00%
system.ruby.L2Cache_Controller.M.L1_GETS      6694730      0.00%      0.00%
system.ruby.L2Cache_Controller.M.L1_GETX      3806080      0.00%      0.00%
system.ruby.L2Cache_Controller.M.L2_Replacement        41600      0.00%      0.00%
system.ruby.L2Cache_Controller.M.L2_Replacement_clean        18293      0.00%      0.00%
system.ruby.L2Cache_Controller.M.MEM_Inv           33      0.00%      0.00%
system.ruby.L2Cache_Controller.MT.L1_GETS        28849      0.00%      0.00%
system.ruby.L2Cache_Controller.MT.L1_GETX         7174      0.00%      0.00%
system.ruby.L2Cache_Controller.MT.L1_PUTX     10595007      0.00%      0.00%
system.ruby.L2Cache_Controller.MT.L2_Replacement          344      0.00%      0.00%
system.ruby.L2Cache_Controller.MT.L2_Replacement_clean          573      0.00%      0.00%
system.ruby.L2Cache_Controller.MT.MEM_Inv           13      0.00%      0.00%
system.ruby.L2Cache_Controller.M_I.Mem_Ack        64025      0.00%      0.00%
system.ruby.L2Cache_Controller.M_I.MEM_Inv           33      0.00%      0.00%
system.ruby.L2Cache_Controller.MT_I.WB_Data          275      0.00%      0.00%
system.ruby.L2Cache_Controller.MT_I.WB_Data_clean           77      0.00%      0.00%
system.ruby.L2Cache_Controller.MT_I.Ack_all            5      0.00%      0.00%
system.ruby.L2Cache_Controller.MT_I.MEM_Inv           13      0.00%      0.00%
system.ruby.L2Cache_Controller.MCT_I.WB_Data          274      0.00%      0.00%
system.ruby.L2Cache_Controller.MCT_I.WB_Data_clean          291      0.00%      0.00%
system.ruby.L2Cache_Controller.MCT_I.Ack_all            8      0.00%      0.00%
system.ruby.L2Cache_Controller.I_I.Ack           4861      0.00%      0.00%
system.ruby.L2Cache_Controller.I_I.Ack_all         2349      0.00%      0.00%
system.ruby.L2Cache_Controller.S_I.Ack            940      0.00%      0.00%
system.ruby.L2Cache_Controller.S_I.Ack_all          820      0.00%      0.00%
system.ruby.L2Cache_Controller.S_I.MEM_Inv           39      0.00%      0.00%
system.ruby.L2Cache_Controller.ISS.L1_GETS           34      0.00%      0.00%
system.ruby.L2Cache_Controller.ISS.Mem_Data        49507      0.00%      0.00%
system.ruby.L2Cache_Controller.IS.L1_GETS            1      0.00%      0.00%
system.ruby.L2Cache_Controller.IS.Mem_Data           34      0.00%      0.00%
system.ruby.L2Cache_Controller.IM.Mem_Data        51263      0.00%      0.00%
system.ruby.L2Cache_Controller.SS_MB.L1_GETS           66      0.00%      0.00%
system.ruby.L2Cache_Controller.SS_MB.L1_GETX            2      0.00%      0.00%
system.ruby.L2Cache_Controller.SS_MB.L1_UPGRADE            5      0.00%      0.00%
system.ruby.L2Cache_Controller.SS_MB.Exclusive_Unblock        23596      0.00%      0.00%
system.ruby.L2Cache_Controller.MT_MB.L1_GETS          335      0.00%      0.00%
system.ruby.L2Cache_Controller.MT_MB.L1_GETX            4      0.00%      0.00%
system.ruby.L2Cache_Controller.MT_MB.Exclusive_Unblock     10608754      0.00%      0.00%
system.ruby.L2Cache_Controller.MT_IIB.L1_GETS           14      0.00%      0.00%
system.ruby.L2Cache_Controller.MT_IIB.L1_PUTX            1      0.00%      0.00%
system.ruby.L2Cache_Controller.MT_IIB.WB_Data        13695      0.00%      0.00%
system.ruby.L2Cache_Controller.MT_IIB.WB_Data_clean        15154      0.00%      0.00%
system.ruby.L2Cache_Controller.MT_SB.L1_UPGRADE            1      0.00%      0.00%
system.ruby.L2Cache_Controller.MT_SB.Unblock        28849      0.00%      0.00%

---------- End Simulation Statistics   ----------
