
---------- Begin Simulation Statistics ----------
sim_seconds                                  1.692453                       # Number of seconds simulated
sim_ticks                                1692453052000                       # Number of ticks simulated
final_tick                               53920862221501                       # Number of ticks from beginning of simulation (restored from checkpoints and never reset)
sim_freq                                 1000000000000                       # Frequency of simulated ticks
host_inst_rate                                 122762                       # Simulator instruction rate (inst/s)
host_op_rate                                   182907                       # Simulator op (including micro ops) rate (op/s)
host_tick_rate                              286667686                       # Simulator tick rate (ticks/s)
host_mem_usage                                1792716                       # Number of bytes of host memory used
host_seconds                                  5903.89                       # Real time elapsed on the host
sim_insts                                   724775147                       # Number of instructions simulated
sim_ops                                    1079862245                       # Number of ops (including micro ops) simulated
system.voltage_domain.voltage                       1                       # Voltage in Volts
system.clk_domain.clock                          1000                       # Clock period in ticks
system.mem_ctrls.bytes_read::ruby.dir_cntrl0    374629952                       # Number of bytes read from this memory
system.mem_ctrls.bytes_read::total          374629952                       # Number of bytes read from this memory
system.mem_ctrls.bytes_written::ruby.dir_cntrl0    170385152                       # Number of bytes written to this memory
system.mem_ctrls.bytes_written::total       170385152                       # Number of bytes written to this memory
system.mem_ctrls.num_reads::ruby.dir_cntrl0      5853593                       # Number of read requests responded to by this memory
system.mem_ctrls.num_reads::total             5853593                       # Number of read requests responded to by this memory
system.mem_ctrls.num_writes::ruby.dir_cntrl0      2662268                       # Number of write requests responded to by this memory
system.mem_ctrls.num_writes::total            2662268                       # Number of write requests responded to by this memory
system.mem_ctrls.bw_read::ruby.dir_cntrl0    221353231                       # Total read bandwidth from this memory (bytes/s)
system.mem_ctrls.bw_read::total             221353231                       # Total read bandwidth from this memory (bytes/s)
system.mem_ctrls.bw_write::ruby.dir_cntrl0    100673488                       # Write bandwidth from this memory (bytes/s)
system.mem_ctrls.bw_write::total            100673488                       # Write bandwidth from this memory (bytes/s)
system.mem_ctrls.bw_total::ruby.dir_cntrl0    322026719                       # Total bandwidth to/from this memory (bytes/s)
system.mem_ctrls.bw_total::total            322026719                       # Total bandwidth to/from this memory (bytes/s)
system.mem_ctrls.readReqs                     5853593                       # Number of read requests accepted
system.mem_ctrls.writeReqs                    2662268                       # Number of write requests accepted
system.mem_ctrls.readBursts                   5853593                       # Number of DRAM read bursts, including those serviced by the write queue
system.mem_ctrls.writeBursts                  2662268                       # Number of DRAM write bursts, including those merged in the write queue
system.mem_ctrls.bytesReadDRAM              374529536                       # Total number of bytes read from DRAM
system.mem_ctrls.bytesReadWrQ                  100416                       # Total number of bytes read from write queue
system.mem_ctrls.bytesWritten               170370816                       # Total number of bytes written to DRAM
system.mem_ctrls.bytesReadSys               374629952                       # Total read bytes from the system interface side
system.mem_ctrls.bytesWrittenSys            170385152                       # Total written bytes from the system interface side
system.mem_ctrls.servicedByWrQ                   1569                       # Number of DRAM read bursts serviced by the write queue
system.mem_ctrls.mergedWrBursts                   202                       # Number of DRAM write bursts merged with an existing one
system.mem_ctrls.neitherReadNorWriteReqs            0                       # Number of requests that are neither read nor write
system.mem_ctrls.perBankRdBursts::0            367588                       # Per bank write bursts
system.mem_ctrls.perBankRdBursts::1            366815                       # Per bank write bursts
system.mem_ctrls.perBankRdBursts::2            365843                       # Per bank write bursts
system.mem_ctrls.perBankRdBursts::3            365928                       # Per bank write bursts
system.mem_ctrls.perBankRdBursts::4            364211                       # Per bank write bursts
system.mem_ctrls.perBankRdBursts::5            364356                       # Per bank write bursts
system.mem_ctrls.perBankRdBursts::6            364572                       # Per bank write bursts
system.mem_ctrls.perBankRdBursts::7            365481                       # Per bank write bursts
system.mem_ctrls.perBankRdBursts::8            365307                       # Per bank write bursts
system.mem_ctrls.perBankRdBursts::9            366370                       # Per bank write bursts
system.mem_ctrls.perBankRdBursts::10           366648                       # Per bank write bursts
system.mem_ctrls.perBankRdBursts::11           364034                       # Per bank write bursts
system.mem_ctrls.perBankRdBursts::12           366144                       # Per bank write bursts
system.mem_ctrls.perBankRdBursts::13           365555                       # Per bank write bursts
system.mem_ctrls.perBankRdBursts::14           367815                       # Per bank write bursts
system.mem_ctrls.perBankRdBursts::15           365357                       # Per bank write bursts
system.mem_ctrls.perBankWrBursts::0            167222                       # Per bank write bursts
system.mem_ctrls.perBankWrBursts::1            167599                       # Per bank write bursts
system.mem_ctrls.perBankWrBursts::2            166906                       # Per bank write bursts
system.mem_ctrls.perBankWrBursts::3            167094                       # Per bank write bursts
system.mem_ctrls.perBankWrBursts::4            165268                       # Per bank write bursts
system.mem_ctrls.perBankWrBursts::5            165116                       # Per bank write bursts
system.mem_ctrls.perBankWrBursts::6            165488                       # Per bank write bursts
system.mem_ctrls.perBankWrBursts::7            165876                       # Per bank write bursts
system.mem_ctrls.perBankWrBursts::8            166067                       # Per bank write bursts
system.mem_ctrls.perBankWrBursts::9            166450                       # Per bank write bursts
system.mem_ctrls.perBankWrBursts::10           167006                       # Per bank write bursts
system.mem_ctrls.perBankWrBursts::11           165420                       # Per bank write bursts
system.mem_ctrls.perBankWrBursts::12           166962                       # Per bank write bursts
system.mem_ctrls.perBankWrBursts::13           166125                       # Per bank write bursts
system.mem_ctrls.perBankWrBursts::14           167442                       # Per bank write bursts
system.mem_ctrls.perBankWrBursts::15           166003                       # Per bank write bursts
system.mem_ctrls.numRdRetry                         0                       # Number of times read queue was full causing retry
system.mem_ctrls.numWrRetry                         0                       # Number of times write queue was full causing retry
system.mem_ctrls.totGap                  1692452987000                       # Total gap between requests
system.mem_ctrls.readPktSize::0                     0                       # Read request sizes (log2)
system.mem_ctrls.readPktSize::1                     0                       # Read request sizes (log2)
system.mem_ctrls.readPktSize::2                     0                       # Read request sizes (log2)
system.mem_ctrls.readPktSize::3                     0                       # Read request sizes (log2)
system.mem_ctrls.readPktSize::4                     0                       # Read request sizes (log2)
system.mem_ctrls.readPktSize::5                     0                       # Read request sizes (log2)
system.mem_ctrls.readPktSize::6               5853593                       # Read request sizes (log2)
system.mem_ctrls.writePktSize::0                    0                       # Write request sizes (log2)
system.mem_ctrls.writePktSize::1                    0                       # Write request sizes (log2)
system.mem_ctrls.writePktSize::2                    0                       # Write request sizes (log2)
system.mem_ctrls.writePktSize::3                    0                       # Write request sizes (log2)
system.mem_ctrls.writePktSize::4                    0                       # Write request sizes (log2)
system.mem_ctrls.writePktSize::5                    0                       # Write request sizes (log2)
system.mem_ctrls.writePktSize::6              2662268                       # Write request sizes (log2)
system.mem_ctrls.rdQLenPdf::0                 5851005                       # What read queue length does an incoming req see
system.mem_ctrls.rdQLenPdf::1                    1011                       # What read queue length does an incoming req see
system.mem_ctrls.rdQLenPdf::2                       8                       # What read queue length does an incoming req see
system.mem_ctrls.rdQLenPdf::3                       0                       # What read queue length does an incoming req see
system.mem_ctrls.rdQLenPdf::4                       0                       # What read queue length does an incoming req see
system.mem_ctrls.rdQLenPdf::5                       0                       # What read queue length does an incoming req see
system.mem_ctrls.rdQLenPdf::6                       0                       # What read queue length does an incoming req see
system.mem_ctrls.rdQLenPdf::7                       0                       # What read queue length does an incoming req see
system.mem_ctrls.rdQLenPdf::8                       0                       # What read queue length does an incoming req see
system.mem_ctrls.rdQLenPdf::9                       0                       # What read queue length does an incoming req see
system.mem_ctrls.rdQLenPdf::10                      0                       # What read queue length does an incoming req see
system.mem_ctrls.rdQLenPdf::11                      0                       # What read queue length does an incoming req see
system.mem_ctrls.rdQLenPdf::12                      0                       # What read queue length does an incoming req see
system.mem_ctrls.rdQLenPdf::13                      0                       # What read queue length does an incoming req see
system.mem_ctrls.rdQLenPdf::14                      0                       # What read queue length does an incoming req see
system.mem_ctrls.rdQLenPdf::15                      0                       # What read queue length does an incoming req see
system.mem_ctrls.rdQLenPdf::16                      0                       # What read queue length does an incoming req see
system.mem_ctrls.rdQLenPdf::17                      0                       # What read queue length does an incoming req see
system.mem_ctrls.rdQLenPdf::18                      0                       # What read queue length does an incoming req see
system.mem_ctrls.rdQLenPdf::19                      0                       # What read queue length does an incoming req see
system.mem_ctrls.rdQLenPdf::20                      0                       # What read queue length does an incoming req see
system.mem_ctrls.rdQLenPdf::21                      0                       # What read queue length does an incoming req see
system.mem_ctrls.rdQLenPdf::22                      0                       # What read queue length does an incoming req see
system.mem_ctrls.rdQLenPdf::23                      0                       # What read queue length does an incoming req see
system.mem_ctrls.rdQLenPdf::24                      0                       # What read queue length does an incoming req see
system.mem_ctrls.rdQLenPdf::25                      0                       # What read queue length does an incoming req see
system.mem_ctrls.rdQLenPdf::26                      0                       # What read queue length does an incoming req see
system.mem_ctrls.rdQLenPdf::27                      0                       # What read queue length does an incoming req see
system.mem_ctrls.rdQLenPdf::28                      0                       # What read queue length does an incoming req see
system.mem_ctrls.rdQLenPdf::29                      0                       # What read queue length does an incoming req see
system.mem_ctrls.rdQLenPdf::30                      0                       # What read queue length does an incoming req see
system.mem_ctrls.rdQLenPdf::31                      0                       # What read queue length does an incoming req see
system.mem_ctrls.wrQLenPdf::0                       1                       # What write queue length does an incoming req see
system.mem_ctrls.wrQLenPdf::1                       1                       # What write queue length does an incoming req see
system.mem_ctrls.wrQLenPdf::2                       1                       # What write queue length does an incoming req see
system.mem_ctrls.wrQLenPdf::3                       1                       # What write queue length does an incoming req see
system.mem_ctrls.wrQLenPdf::4                       1                       # What write queue length does an incoming req see
system.mem_ctrls.wrQLenPdf::5                       1                       # What write queue length does an incoming req see
system.mem_ctrls.wrQLenPdf::6                       1                       # What write queue length does an incoming req see
system.mem_ctrls.wrQLenPdf::7                       1                       # What write queue length does an incoming req see
system.mem_ctrls.wrQLenPdf::8                       1                       # What write queue length does an incoming req see
system.mem_ctrls.wrQLenPdf::9                       1                       # What write queue length does an incoming req see
system.mem_ctrls.wrQLenPdf::10                      1                       # What write queue length does an incoming req see
system.mem_ctrls.wrQLenPdf::11                      1                       # What write queue length does an incoming req see
system.mem_ctrls.wrQLenPdf::12                      1                       # What write queue length does an incoming req see
system.mem_ctrls.wrQLenPdf::13                      1                       # What write queue length does an incoming req see
system.mem_ctrls.wrQLenPdf::14                      1                       # What write queue length does an incoming req see
system.mem_ctrls.wrQLenPdf::15                  45652                       # What write queue length does an incoming req see
system.mem_ctrls.wrQLenPdf::16                  55687                       # What write queue length does an incoming req see
system.mem_ctrls.wrQLenPdf::17                 125637                       # What write queue length does an incoming req see
system.mem_ctrls.wrQLenPdf::18                 157065                       # What write queue length does an incoming req see
system.mem_ctrls.wrQLenPdf::19                 162219                       # What write queue length does an incoming req see
system.mem_ctrls.wrQLenPdf::20                 163522                       # What write queue length does an incoming req see
system.mem_ctrls.wrQLenPdf::21                 164201                       # What write queue length does an incoming req see
system.mem_ctrls.wrQLenPdf::22                 164726                       # What write queue length does an incoming req see
system.mem_ctrls.wrQLenPdf::23                 164883                       # What write queue length does an incoming req see
system.mem_ctrls.wrQLenPdf::24                 164656                       # What write queue length does an incoming req see
system.mem_ctrls.wrQLenPdf::25                 164393                       # What write queue length does an incoming req see
system.mem_ctrls.wrQLenPdf::26                 163755                       # What write queue length does an incoming req see
system.mem_ctrls.wrQLenPdf::27                 162983                       # What write queue length does an incoming req see
system.mem_ctrls.wrQLenPdf::28                 162106                       # What write queue length does an incoming req see
system.mem_ctrls.wrQLenPdf::29                 161680                       # What write queue length does an incoming req see
system.mem_ctrls.wrQLenPdf::30                 159774                       # What write queue length does an incoming req see
system.mem_ctrls.wrQLenPdf::31                 158976                       # What write queue length does an incoming req see
system.mem_ctrls.wrQLenPdf::32                 159069                       # What write queue length does an incoming req see
system.mem_ctrls.wrQLenPdf::33                    724                       # What write queue length does an incoming req see
system.mem_ctrls.wrQLenPdf::34                    203                       # What write queue length does an incoming req see
system.mem_ctrls.wrQLenPdf::35                     65                       # What write queue length does an incoming req see
system.mem_ctrls.wrQLenPdf::36                     33                       # What write queue length does an incoming req see
system.mem_ctrls.wrQLenPdf::37                     15                       # What write queue length does an incoming req see
system.mem_ctrls.wrQLenPdf::38                     11                       # What write queue length does an incoming req see
system.mem_ctrls.wrQLenPdf::39                      6                       # What write queue length does an incoming req see
system.mem_ctrls.wrQLenPdf::40                      4                       # What write queue length does an incoming req see
system.mem_ctrls.wrQLenPdf::41                      2                       # What write queue length does an incoming req see
system.mem_ctrls.wrQLenPdf::42                      2                       # What write queue length does an incoming req see
system.mem_ctrls.wrQLenPdf::43                      1                       # What write queue length does an incoming req see
system.mem_ctrls.wrQLenPdf::44                      1                       # What write queue length does an incoming req see
system.mem_ctrls.wrQLenPdf::45                      0                       # What write queue length does an incoming req see
system.mem_ctrls.wrQLenPdf::46                      0                       # What write queue length does an incoming req see
system.mem_ctrls.wrQLenPdf::47                      0                       # What write queue length does an incoming req see
system.mem_ctrls.wrQLenPdf::48                      0                       # What write queue length does an incoming req see
system.mem_ctrls.wrQLenPdf::49                      0                       # What write queue length does an incoming req see
system.mem_ctrls.wrQLenPdf::50                      0                       # What write queue length does an incoming req see
system.mem_ctrls.wrQLenPdf::51                      0                       # What write queue length does an incoming req see
system.mem_ctrls.wrQLenPdf::52                      0                       # What write queue length does an incoming req see
system.mem_ctrls.wrQLenPdf::53                      0                       # What write queue length does an incoming req see
system.mem_ctrls.wrQLenPdf::54                      0                       # What write queue length does an incoming req see
system.mem_ctrls.wrQLenPdf::55                      0                       # What write queue length does an incoming req see
system.mem_ctrls.wrQLenPdf::56                      0                       # What write queue length does an incoming req see
system.mem_ctrls.wrQLenPdf::57                      0                       # What write queue length does an incoming req see
system.mem_ctrls.wrQLenPdf::58                      0                       # What write queue length does an incoming req see
system.mem_ctrls.wrQLenPdf::59                      0                       # What write queue length does an incoming req see
system.mem_ctrls.wrQLenPdf::60                      0                       # What write queue length does an incoming req see
system.mem_ctrls.wrQLenPdf::61                      0                       # What write queue length does an incoming req see
system.mem_ctrls.wrQLenPdf::62                      0                       # What write queue length does an incoming req see
system.mem_ctrls.wrQLenPdf::63                      0                       # What write queue length does an incoming req see
system.mem_ctrls.bytesPerActivate::samples      3673694                       # Bytes accessed per row activation
system.mem_ctrls.bytesPerActivate::mean    148.324968                       # Bytes accessed per row activation
system.mem_ctrls.bytesPerActivate::gmean    90.499380                       # Bytes accessed per row activation
system.mem_ctrls.bytesPerActivate::stdev   230.864728                       # Bytes accessed per row activation
system.mem_ctrls.bytesPerActivate::0-127      2923711     79.59%     79.59% # Bytes accessed per row activation
system.mem_ctrls.bytesPerActivate::128-255       287270      7.82%     87.40% # Bytes accessed per row activation
system.mem_ctrls.bytesPerActivate::256-383       101229      2.76%     90.16% # Bytes accessed per row activation
system.mem_ctrls.bytesPerActivate::384-511        65128      1.77%     91.93% # Bytes accessed per row activation
system.mem_ctrls.bytesPerActivate::512-639        48132      1.31%     93.24% # Bytes accessed per row activation
system.mem_ctrls.bytesPerActivate::640-767        33234      0.90%     94.15% # Bytes accessed per row activation
system.mem_ctrls.bytesPerActivate::768-895        28758      0.78%     94.93% # Bytes accessed per row activation
system.mem_ctrls.bytesPerActivate::896-1023        19470      0.53%     95.46% # Bytes accessed per row activation
system.mem_ctrls.bytesPerActivate::1024-1151       166762      4.54%    100.00% # Bytes accessed per row activation
system.mem_ctrls.bytesPerActivate::total      3673694                       # Bytes accessed per row activation
system.mem_ctrls.rdPerTurnAround::samples       158724                       # Reads before turning the bus around for writes
system.mem_ctrls.rdPerTurnAround::mean      36.963414                       # Reads before turning the bus around for writes
system.mem_ctrls.rdPerTurnAround::stdev   1258.240524                       # Reads before turning the bus around for writes
system.mem_ctrls.rdPerTurnAround::0-16383       158706     99.99%     99.99% # Reads before turning the bus around for writes
system.mem_ctrls.rdPerTurnAround::16384-32767            6      0.00%     99.99% # Reads before turning the bus around for writes
system.mem_ctrls.rdPerTurnAround::32768-49151            1      0.00%     99.99% # Reads before turning the bus around for writes
system.mem_ctrls.rdPerTurnAround::49152-65535            8      0.01%    100.00% # Reads before turning the bus around for writes
system.mem_ctrls.rdPerTurnAround::147456-163839            2      0.00%    100.00% # Reads before turning the bus around for writes
system.mem_ctrls.rdPerTurnAround::409600-425983            1      0.00%    100.00% # Reads before turning the bus around for writes
system.mem_ctrls.rdPerTurnAround::total        158724                       # Reads before turning the bus around for writes
system.mem_ctrls.wrPerTurnAround::samples       158724                       # Writes before turning the bus around for reads
system.mem_ctrls.wrPerTurnAround::mean      16.771528                       # Writes before turning the bus around for reads
system.mem_ctrls.wrPerTurnAround::gmean     16.734286                       # Writes before turning the bus around for reads
system.mem_ctrls.wrPerTurnAround::stdev      1.154810                       # Writes before turning the bus around for reads
system.mem_ctrls.wrPerTurnAround::16           101407     63.89%     63.89% # Writes before turning the bus around for reads
system.mem_ctrls.wrPerTurnAround::17             7685      4.84%     68.73% # Writes before turning the bus around for reads
system.mem_ctrls.wrPerTurnAround::18            40012     25.21%     93.94% # Writes before turning the bus around for reads
system.mem_ctrls.wrPerTurnAround::19             6263      3.95%     97.89% # Writes before turning the bus around for reads
system.mem_ctrls.wrPerTurnAround::20             2048      1.29%     99.18% # Writes before turning the bus around for reads
system.mem_ctrls.wrPerTurnAround::21              706      0.44%     99.62% # Writes before turning the bus around for reads
system.mem_ctrls.wrPerTurnAround::22              315      0.20%     99.82% # Writes before turning the bus around for reads
system.mem_ctrls.wrPerTurnAround::23              139      0.09%     99.91% # Writes before turning the bus around for reads
system.mem_ctrls.wrPerTurnAround::24               79      0.05%     99.96% # Writes before turning the bus around for reads
system.mem_ctrls.wrPerTurnAround::25               31      0.02%     99.98% # Writes before turning the bus around for reads
system.mem_ctrls.wrPerTurnAround::26               19      0.01%     99.99% # Writes before turning the bus around for reads
system.mem_ctrls.wrPerTurnAround::27                6      0.00%     99.99% # Writes before turning the bus around for reads
system.mem_ctrls.wrPerTurnAround::28                4      0.00%     99.99% # Writes before turning the bus around for reads
system.mem_ctrls.wrPerTurnAround::30                4      0.00%    100.00% # Writes before turning the bus around for reads
system.mem_ctrls.wrPerTurnAround::31                2      0.00%    100.00% # Writes before turning the bus around for reads
system.mem_ctrls.wrPerTurnAround::32                1      0.00%    100.00% # Writes before turning the bus around for reads
system.mem_ctrls.wrPerTurnAround::34                2      0.00%    100.00% # Writes before turning the bus around for reads
system.mem_ctrls.wrPerTurnAround::40                1      0.00%    100.00% # Writes before turning the bus around for reads
system.mem_ctrls.wrPerTurnAround::total        158724                       # Writes before turning the bus around for reads
system.mem_ctrls.totQLat                  79898245497                       # Total ticks spent queuing
system.mem_ctrls.totMemAccLat            189623695497                       # Total ticks spent from burst creation until serviced by the DRAM
system.mem_ctrls.totBusLat                29260120000                       # Total ticks spent in databus transfers
system.mem_ctrls.avgQLat                     13653.10                       # Average queueing delay per DRAM burst
system.mem_ctrls.avgBusLat                    5000.00                       # Average bus latency per DRAM burst
system.mem_ctrls.avgMemAccLat                32403.10                       # Average memory access latency per DRAM burst
system.mem_ctrls.avgRdBW                       221.29                       # Average DRAM read bandwidth in MiByte/s
system.mem_ctrls.avgWrBW                       100.67                       # Average achieved write bandwidth in MiByte/s
system.mem_ctrls.avgRdBWSys                    221.35                       # Average system read bandwidth in MiByte/s
system.mem_ctrls.avgWrBWSys                    100.67                       # Average system write bandwidth in MiByte/s
system.mem_ctrls.peakBW                      12800.00                       # Theoretical peak bandwidth in MiByte/s
system.mem_ctrls.busUtil                         2.52                       # Data bus utilization in percentage
system.mem_ctrls.busUtilRead                     1.73                       # Data bus utilization in percentage for reads
system.mem_ctrls.busUtilWrite                    0.79                       # Data bus utilization in percentage for writes
system.mem_ctrls.avgRdQLen                       1.00                       # Average read queue length when enqueuing
system.mem_ctrls.avgWrQLen                      25.02                       # Average write queue length when enqueuing
system.mem_ctrls.readRowHits                  3771637                       # Number of row buffer hits during reads
system.mem_ctrls.writeRowHits                 1068738                       # Number of row buffer hits during writes
system.mem_ctrls.readRowHitRate                 64.45                       # Row buffer hit rate for reads
system.mem_ctrls.writeRowHitRate                40.15                       # Row buffer hit rate for writes
system.mem_ctrls.avgGap                     198741.26                       # Average gap between requests
system.mem_ctrls.pageHitRate                    56.85                       # Row buffer hit rate, read and write combined
system.mem_ctrls_0.actEnergy              13898833200                       # Energy for activate commands per rank (pJ)
system.mem_ctrls_0.preEnergy               7583688750                       # Energy for precharge commands per rank (pJ)
system.mem_ctrls_0.readEnergy             22872642000                       # Energy for read commands per rank (pJ)
system.mem_ctrls_0.writeEnergy             8622087120                       # Energy for write commands per rank (pJ)
system.mem_ctrls_0.refreshEnergy         110756739600                       # Energy for refresh commands per rank (pJ)
system.mem_ctrls_0.actBackEnergy         544333953645                       # Energy for active background per rank (pJ)
system.mem_ctrls_0.preBackEnergy         539951305500                       # Energy for precharge background per rank (pJ)
system.mem_ctrls_0.totalEnergy           1248019249815                       # Total energy per rank (pJ)
system.mem_ctrls_0.averagePower            735.978130                       # Core power per rank (mW)
system.mem_ctrls_0.memoryStateTime::IDLE 893275386500                       # Time in different power states
system.mem_ctrls_0.memoryStateTime::REF   56514900000                       # Time in different power states
system.mem_ctrls_0.memoryStateTime::PRE_PDN            0                       # Time in different power states
system.mem_ctrls_0.memoryStateTime::ACT  742668191750                       # Time in different power states
system.mem_ctrls_0.memoryStateTime::ACT_PDN            0                       # Time in different power states
system.mem_ctrls_1.actEnergy              13902341040                       # Energy for activate commands per rank (pJ)
system.mem_ctrls_1.preEnergy               7585602750                       # Energy for precharge commands per rank (pJ)
system.mem_ctrls_1.readEnergy             22891229400                       # Energy for read commands per rank (pJ)
system.mem_ctrls_1.writeEnergy             8627958000                       # Energy for write commands per rank (pJ)
system.mem_ctrls_1.refreshEnergy         110756739600                       # Energy for refresh commands per rank (pJ)
system.mem_ctrls_1.actBackEnergy         545413351815                       # Energy for active background per rank (pJ)
system.mem_ctrls_1.preBackEnergy         539004465000                       # Energy for precharge background per rank (pJ)
system.mem_ctrls_1.totalEnergy           1248181687605                       # Total energy per rank (pJ)
system.mem_ctrls_1.averagePower            736.073922                       # Core power per rank (mW)
system.mem_ctrls_1.memoryStateTime::IDLE 891647929250                       # Time in different power states
system.mem_ctrls_1.memoryStateTime::REF   56514900000                       # Time in different power states
system.mem_ctrls_1.memoryStateTime::PRE_PDN            0                       # Time in different power states
system.mem_ctrls_1.memoryStateTime::ACT  744295402000                       # Time in different power states
system.mem_ctrls_1.memoryStateTime::ACT_PDN            0                       # Time in different power states
system.cpu_voltage_domain.voltage                   1                       # Voltage in Volts
system.cpu_clk_domain.clock                       500                       # Clock period in ticks
system.cpu0.apic_clk_domain.clock                8000                       # Clock period in ticks
system.cpu0.numCycles                      3381071224                       # number of cpu cycles simulated
system.cpu0.numWorkItemsStarted                     0                       # number of work items this cpu started
system.cpu0.numWorkItemsCompleted                   0                       # number of work items this cpu completed
system.cpu0.kern.inst.arm                           0                       # number of arm instructions executed
system.cpu0.kern.inst.quiesce                       0                       # number of quiesce instructions executed
system.cpu0.committedInsts                    1341561                       # Number of instructions committed
system.cpu0.committedOps                      2928278                       # Number of ops (including micro ops) committed
system.cpu0.num_int_alu_accesses              2865298                       # Number of integer alu accesses
system.cpu0.num_fp_alu_accesses                     0                       # Number of float alu accesses
system.cpu0.num_func_calls                      86892                       # number of times a function call or return occured
system.cpu0.num_conditional_control_insts       192500                       # number of instructions that are conditional controls
system.cpu0.num_int_insts                     2865298                       # number of integer instructions
system.cpu0.num_fp_insts                            0                       # number of float instructions
system.cpu0.num_int_register_reads            5822704                       # number of times the integer registers were read
system.cpu0.num_int_register_writes           2374056                       # number of times the integer registers were written
system.cpu0.num_fp_register_reads                   0                       # number of times the floating registers were read
system.cpu0.num_fp_register_writes                  0                       # number of times the floating registers were written
system.cpu0.num_cc_register_reads             1610238                       # number of times the CC registers were read
system.cpu0.num_cc_register_writes             874429                       # number of times the CC registers were written
system.cpu0.num_mem_refs                       691511                       # number of memory refs
system.cpu0.num_load_insts                     426895                       # Number of load instructions
system.cpu0.num_store_insts                    264616                       # Number of store instructions
system.cpu0.num_idle_cycles              3375323133.601469                       # Number of idle cycles
system.cpu0.num_busy_cycles              5748090.398531                       # Number of busy cycles
system.cpu0.not_idle_fraction                0.001700                       # Percentage of non-idle cycles
system.cpu0.idle_fraction                    0.998300                       # Percentage of idle cycles
system.cpu0.Branches                           305751                       # Number of branches fetched
system.cpu0.op_class::No_OpClass                50564      1.73%      1.73% # Class of executed instruction
system.cpu0.op_class::IntAlu                  2163823     73.89%     75.62% # Class of executed instruction
system.cpu0.op_class::IntMult                    5520      0.19%     75.81% # Class of executed instruction
system.cpu0.op_class::IntDiv                    16863      0.58%     76.39% # Class of executed instruction
system.cpu0.op_class::FloatAdd                      0      0.00%     76.39% # Class of executed instruction
system.cpu0.op_class::FloatCmp                      0      0.00%     76.39% # Class of executed instruction
system.cpu0.op_class::FloatCvt                      0      0.00%     76.39% # Class of executed instruction
system.cpu0.op_class::FloatMult                     0      0.00%     76.39% # Class of executed instruction
system.cpu0.op_class::FloatDiv                      0      0.00%     76.39% # Class of executed instruction
system.cpu0.op_class::FloatSqrt                     0      0.00%     76.39% # Class of executed instruction
system.cpu0.op_class::SimdAdd                       0      0.00%     76.39% # Class of executed instruction
system.cpu0.op_class::SimdAddAcc                    0      0.00%     76.39% # Class of executed instruction
system.cpu0.op_class::SimdAlu                       0      0.00%     76.39% # Class of executed instruction
system.cpu0.op_class::SimdCmp                       0      0.00%     76.39% # Class of executed instruction
system.cpu0.op_class::SimdCvt                       0      0.00%     76.39% # Class of executed instruction
system.cpu0.op_class::SimdMisc                      0      0.00%     76.39% # Class of executed instruction
system.cpu0.op_class::SimdMult                      0      0.00%     76.39% # Class of executed instruction
system.cpu0.op_class::SimdMultAcc                   0      0.00%     76.39% # Class of executed instruction
system.cpu0.op_class::SimdShift                     0      0.00%     76.39% # Class of executed instruction
system.cpu0.op_class::SimdShiftAcc                  0      0.00%     76.39% # Class of executed instruction
system.cpu0.op_class::SimdSqrt                      0      0.00%     76.39% # Class of executed instruction
system.cpu0.op_class::SimdFloatAdd                  0      0.00%     76.39% # Class of executed instruction
system.cpu0.op_class::SimdFloatAlu                  0      0.00%     76.39% # Class of executed instruction
system.cpu0.op_class::SimdFloatCmp                  0      0.00%     76.39% # Class of executed instruction
system.cpu0.op_class::SimdFloatCvt                  0      0.00%     76.39% # Class of executed instruction
system.cpu0.op_class::SimdFloatDiv                  0      0.00%     76.39% # Class of executed instruction
system.cpu0.op_class::SimdFloatMisc                 0      0.00%     76.39% # Class of executed instruction
system.cpu0.op_class::SimdFloatMult                 0      0.00%     76.39% # Class of executed instruction
system.cpu0.op_class::SimdFloatMultAcc              0      0.00%     76.39% # Class of executed instruction
system.cpu0.op_class::SimdFloatSqrt                 0      0.00%     76.39% # Class of executed instruction
system.cpu0.op_class::MemRead                  426895     14.58%     90.96% # Class of executed instruction
system.cpu0.op_class::MemWrite                 264616      9.04%    100.00% # Class of executed instruction
system.cpu0.op_class::IprAccess                     0      0.00%    100.00% # Class of executed instruction
system.cpu0.op_class::InstPrefetch                  0      0.00%    100.00% # Class of executed instruction
system.cpu0.op_class::total                   2928281                       # Class of executed instruction
system.cpu1.apic_clk_domain.clock                8000                       # Clock period in ticks
system.cpu1.numCycles                      3382666049                       # number of cpu cycles simulated
system.cpu1.numWorkItemsStarted                     0                       # number of work items this cpu started
system.cpu1.numWorkItemsCompleted                   0                       # number of work items this cpu completed
system.cpu1.kern.inst.arm                           0                       # number of arm instructions executed
system.cpu1.kern.inst.quiesce                       0                       # number of quiesce instructions executed
system.cpu1.committedInsts                    3780732                       # Number of instructions committed
system.cpu1.committedOps                      7553657                       # Number of ops (including micro ops) committed
system.cpu1.num_int_alu_accesses              7418606                       # Number of integer alu accesses
system.cpu1.num_fp_alu_accesses                  1778                       # Number of float alu accesses
system.cpu1.num_func_calls                     196634                       # number of times a function call or return occured
system.cpu1.num_conditional_control_insts       638233                       # number of instructions that are conditional controls
system.cpu1.num_int_insts                     7418606                       # number of integer instructions
system.cpu1.num_fp_insts                         1778                       # number of float instructions
system.cpu1.num_int_register_reads           14757096                       # number of times the integer registers were read
system.cpu1.num_int_register_writes           6034200                       # number of times the integer registers were written
system.cpu1.num_fp_register_reads                2988                       # number of times the floating registers were read
system.cpu1.num_fp_register_writes               1416                       # number of times the floating registers were written
system.cpu1.num_cc_register_reads             4774153                       # number of times the CC registers were read
system.cpu1.num_cc_register_writes            2575501                       # number of times the CC registers were written
system.cpu1.num_mem_refs                      1708259                       # number of memory refs
system.cpu1.num_load_insts                    1109078                       # Number of load instructions
system.cpu1.num_store_insts                    599181                       # Number of store instructions
system.cpu1.num_idle_cycles              3367195231.022553                       # Number of idle cycles
system.cpu1.num_busy_cycles              15470817.977447                       # Number of busy cycles
system.cpu1.not_idle_fraction                0.004574                       # Percentage of non-idle cycles
system.cpu1.idle_fraction                    0.995426                       # Percentage of idle cycles
system.cpu1.Branches                           869646                       # Number of branches fetched
system.cpu1.op_class::No_OpClass                52747      0.70%      0.70% # Class of executed instruction
system.cpu1.op_class::IntAlu                  5766657     76.34%     77.04% # Class of executed instruction
system.cpu1.op_class::IntMult                    7388      0.10%     77.14% # Class of executed instruction
system.cpu1.op_class::IntDiv                    17351      0.23%     77.37% # Class of executed instruction
system.cpu1.op_class::FloatAdd                   1344      0.02%     77.39% # Class of executed instruction
system.cpu1.op_class::FloatCmp                      0      0.00%     77.39% # Class of executed instruction
system.cpu1.op_class::FloatCvt                      0      0.00%     77.39% # Class of executed instruction
system.cpu1.op_class::FloatMult                     0      0.00%     77.39% # Class of executed instruction
system.cpu1.op_class::FloatDiv                      0      0.00%     77.39% # Class of executed instruction
system.cpu1.op_class::FloatSqrt                     0      0.00%     77.39% # Class of executed instruction
system.cpu1.op_class::SimdAdd                       0      0.00%     77.39% # Class of executed instruction
system.cpu1.op_class::SimdAddAcc                    0      0.00%     77.39% # Class of executed instruction
system.cpu1.op_class::SimdAlu                       0      0.00%     77.39% # Class of executed instruction
system.cpu1.op_class::SimdCmp                       0      0.00%     77.39% # Class of executed instruction
system.cpu1.op_class::SimdCvt                       0      0.00%     77.39% # Class of executed instruction
system.cpu1.op_class::SimdMisc                      0      0.00%     77.39% # Class of executed instruction
system.cpu1.op_class::SimdMult                      0      0.00%     77.39% # Class of executed instruction
system.cpu1.op_class::SimdMultAcc                   0      0.00%     77.39% # Class of executed instruction
system.cpu1.op_class::SimdShift                     0      0.00%     77.39% # Class of executed instruction
system.cpu1.op_class::SimdShiftAcc                  0      0.00%     77.39% # Class of executed instruction
system.cpu1.op_class::SimdSqrt                      0      0.00%     77.39% # Class of executed instruction
system.cpu1.op_class::SimdFloatAdd                  0      0.00%     77.39% # Class of executed instruction
system.cpu1.op_class::SimdFloatAlu                  0      0.00%     77.39% # Class of executed instruction
system.cpu1.op_class::SimdFloatCmp                  0      0.00%     77.39% # Class of executed instruction
system.cpu1.op_class::SimdFloatCvt                  0      0.00%     77.39% # Class of executed instruction
system.cpu1.op_class::SimdFloatDiv                  0      0.00%     77.39% # Class of executed instruction
system.cpu1.op_class::SimdFloatMisc                 0      0.00%     77.39% # Class of executed instruction
system.cpu1.op_class::SimdFloatMult                 0      0.00%     77.39% # Class of executed instruction
system.cpu1.op_class::SimdFloatMultAcc              0      0.00%     77.39% # Class of executed instruction
system.cpu1.op_class::SimdFloatSqrt                 0      0.00%     77.39% # Class of executed instruction
system.cpu1.op_class::MemRead                 1109078     14.68%     92.07% # Class of executed instruction
system.cpu1.op_class::MemWrite                 599181      7.93%    100.00% # Class of executed instruction
system.cpu1.op_class::IprAccess                     0      0.00%    100.00% # Class of executed instruction
system.cpu1.op_class::InstPrefetch                  0      0.00%    100.00% # Class of executed instruction
system.cpu1.op_class::total                   7553746                       # Class of executed instruction
system.cpu2.apic_clk_domain.clock                8000                       # Clock period in ticks
system.cpu2.numCycles                      3387839182                       # number of cpu cycles simulated
system.cpu2.numWorkItemsStarted                     0                       # number of work items this cpu started
system.cpu2.numWorkItemsCompleted                   0                       # number of work items this cpu completed
system.cpu2.kern.inst.arm                           0                       # number of arm instructions executed
system.cpu2.kern.inst.quiesce                       0                       # number of quiesce instructions executed
system.cpu2.committedInsts                    1239979                       # Number of instructions committed
system.cpu2.committedOps                      2669988                       # Number of ops (including micro ops) committed
system.cpu2.num_int_alu_accesses              2610571                       # Number of integer alu accesses
system.cpu2.num_fp_alu_accesses                    39                       # Number of float alu accesses
system.cpu2.num_func_calls                      72972                       # number of times a function call or return occured
system.cpu2.num_conditional_control_insts       188643                       # number of instructions that are conditional controls
system.cpu2.num_int_insts                     2610571                       # number of integer instructions
system.cpu2.num_fp_insts                           39                       # number of float instructions
system.cpu2.num_int_register_reads            5312439                       # number of times the integer registers were read
system.cpu2.num_int_register_writes           2165308                       # number of times the integer registers were written
system.cpu2.num_fp_register_reads                  63                       # number of times the floating registers were read
system.cpu2.num_fp_register_writes                 31                       # number of times the floating registers were written
system.cpu2.num_cc_register_reads             1509053                       # number of times the CC registers were read
system.cpu2.num_cc_register_writes             789814                       # number of times the CC registers were written
system.cpu2.num_mem_refs                       636676                       # number of memory refs
system.cpu2.num_load_insts                     394609                       # Number of load instructions
system.cpu2.num_store_insts                    242067                       # Number of store instructions
system.cpu2.num_idle_cycles              3382493155.588910                       # Number of idle cycles
system.cpu2.num_busy_cycles              5346026.411091                       # Number of busy cycles
system.cpu2.not_idle_fraction                0.001578                       # Percentage of non-idle cycles
system.cpu2.idle_fraction                    0.998422                       # Percentage of idle cycles
system.cpu2.Branches                           285637                       # Number of branches fetched
system.cpu2.op_class::No_OpClass                50728      1.90%      1.90% # Class of executed instruction
system.cpu2.op_class::IntAlu                  1959388     73.39%     75.28% # Class of executed instruction
system.cpu2.op_class::IntMult                    5192      0.19%     75.48% # Class of executed instruction
system.cpu2.op_class::IntDiv                    17996      0.67%     76.15% # Class of executed instruction
system.cpu2.op_class::FloatAdd                     30      0.00%     76.15% # Class of executed instruction
system.cpu2.op_class::FloatCmp                      0      0.00%     76.15% # Class of executed instruction
system.cpu2.op_class::FloatCvt                      0      0.00%     76.15% # Class of executed instruction
system.cpu2.op_class::FloatMult                     0      0.00%     76.15% # Class of executed instruction
system.cpu2.op_class::FloatDiv                      0      0.00%     76.15% # Class of executed instruction
system.cpu2.op_class::FloatSqrt                     0      0.00%     76.15% # Class of executed instruction
system.cpu2.op_class::SimdAdd                       0      0.00%     76.15% # Class of executed instruction
system.cpu2.op_class::SimdAddAcc                    0      0.00%     76.15% # Class of executed instruction
system.cpu2.op_class::SimdAlu                       0      0.00%     76.15% # Class of executed instruction
system.cpu2.op_class::SimdCmp                       0      0.00%     76.15% # Class of executed instruction
system.cpu2.op_class::SimdCvt                       0      0.00%     76.15% # Class of executed instruction
system.cpu2.op_class::SimdMisc                      0      0.00%     76.15% # Class of executed instruction
system.cpu2.op_class::SimdMult                      0      0.00%     76.15% # Class of executed instruction
system.cpu2.op_class::SimdMultAcc                   0      0.00%     76.15% # Class of executed instruction
system.cpu2.op_class::SimdShift                     0      0.00%     76.15% # Class of executed instruction
system.cpu2.op_class::SimdShiftAcc                  0      0.00%     76.15% # Class of executed instruction
system.cpu2.op_class::SimdSqrt                      0      0.00%     76.15% # Class of executed instruction
system.cpu2.op_class::SimdFloatAdd                  0      0.00%     76.15% # Class of executed instruction
system.cpu2.op_class::SimdFloatAlu                  0      0.00%     76.15% # Class of executed instruction
system.cpu2.op_class::SimdFloatCmp                  0      0.00%     76.15% # Class of executed instruction
system.cpu2.op_class::SimdFloatCvt                  0      0.00%     76.15% # Class of executed instruction
system.cpu2.op_class::SimdFloatDiv                  0      0.00%     76.15% # Class of executed instruction
system.cpu2.op_class::SimdFloatMisc                 0      0.00%     76.15% # Class of executed instruction
system.cpu2.op_class::SimdFloatMult                 0      0.00%     76.15% # Class of executed instruction
system.cpu2.op_class::SimdFloatMultAcc              0      0.00%     76.15% # Class of executed instruction
system.cpu2.op_class::SimdFloatSqrt                 0      0.00%     76.15% # Class of executed instruction
system.cpu2.op_class::MemRead                  394609     14.78%     90.93% # Class of executed instruction
system.cpu2.op_class::MemWrite                 242067      9.07%    100.00% # Class of executed instruction
system.cpu2.op_class::IprAccess                     0      0.00%    100.00% # Class of executed instruction
system.cpu2.op_class::InstPrefetch                  0      0.00%    100.00% # Class of executed instruction
system.cpu2.op_class::total                   2670010                       # Class of executed instruction
system.cpu3.apic_clk_domain.clock                8000                       # Clock period in ticks
system.cpu3.numCycles                      3386840899                       # number of cpu cycles simulated
system.cpu3.numWorkItemsStarted                     0                       # number of work items this cpu started
system.cpu3.numWorkItemsCompleted                   0                       # number of work items this cpu completed
system.cpu3.kern.inst.arm                           0                       # number of arm instructions executed
system.cpu3.kern.inst.quiesce                       0                       # number of quiesce instructions executed
system.cpu3.committedInsts                  717076694                       # Number of instructions committed
system.cpu3.committedOps                   1064250272                       # Number of ops (including micro ops) committed
system.cpu3.num_int_alu_accesses            463761492                       # Number of integer alu accesses
system.cpu3.num_fp_alu_accesses             708837843                       # Number of float alu accesses
system.cpu3.num_func_calls                     894869                       # number of times a function call or return occured
system.cpu3.num_conditional_control_insts     10825106                       # number of instructions that are conditional controls
system.cpu3.num_int_insts                   463761492                       # number of integer instructions
system.cpu3.num_fp_insts                    708837843                       # number of float instructions
system.cpu3.num_int_register_reads          971604744                       # number of times the integer registers were read
system.cpu3.num_int_register_writes         343667673                       # number of times the integer registers were written
system.cpu3.num_fp_register_reads          1593836311                       # number of times the floating registers were read
system.cpu3.num_fp_register_writes          654311799                       # number of times the floating registers were written
system.cpu3.num_cc_register_reads           111585919                       # number of times the CC registers were read
system.cpu3.num_cc_register_writes          201594494                       # number of times the CC registers were written
system.cpu3.num_mem_refs                    129308552                       # number of memory refs
system.cpu3.num_load_insts                   75416096                       # Number of load instructions
system.cpu3.num_store_insts                  53892456                       # Number of store instructions
system.cpu3.num_idle_cycles              10663909.952199                       # Number of idle cycles
system.cpu3.num_busy_cycles              3376176989.047801                       # Number of busy cycles
system.cpu3.not_idle_fraction                0.996851                       # Percentage of non-idle cycles
system.cpu3.idle_fraction                    0.003149                       # Percentage of idle cycles
system.cpu3.Branches                         12010024                       # Number of branches fetched
system.cpu3.op_class::No_OpClass               312916      0.03%      0.03% # Class of executed instruction
system.cpu3.op_class::IntAlu                431238748     40.52%     40.55% # Class of executed instruction
system.cpu3.op_class::IntMult                   87569      0.01%     40.56% # Class of executed instruction
system.cpu3.op_class::IntDiv                     2214      0.00%     40.56% # Class of executed instruction
system.cpu3.op_class::FloatAdd              503316796     47.29%     87.85% # Class of executed instruction
system.cpu3.op_class::FloatCmp                      0      0.00%     87.85% # Class of executed instruction
system.cpu3.op_class::FloatCvt                      0      0.00%     87.85% # Class of executed instruction
system.cpu3.op_class::FloatMult                     0      0.00%     87.85% # Class of executed instruction
system.cpu3.op_class::FloatDiv                      0      0.00%     87.85% # Class of executed instruction
system.cpu3.op_class::FloatSqrt                     0      0.00%     87.85% # Class of executed instruction
system.cpu3.op_class::SimdAdd                       0      0.00%     87.85% # Class of executed instruction
system.cpu3.op_class::SimdAddAcc                    0      0.00%     87.85% # Class of executed instruction
system.cpu3.op_class::SimdAlu                       0      0.00%     87.85% # Class of executed instruction
system.cpu3.op_class::SimdCmp                       0      0.00%     87.85% # Class of executed instruction
system.cpu3.op_class::SimdCvt                       0      0.00%     87.85% # Class of executed instruction
system.cpu3.op_class::SimdMisc                      0      0.00%     87.85% # Class of executed instruction
system.cpu3.op_class::SimdMult                      0      0.00%     87.85% # Class of executed instruction
system.cpu3.op_class::SimdMultAcc                   0      0.00%     87.85% # Class of executed instruction
system.cpu3.op_class::SimdShift                     0      0.00%     87.85% # Class of executed instruction
system.cpu3.op_class::SimdShiftAcc                  0      0.00%     87.85% # Class of executed instruction
system.cpu3.op_class::SimdSqrt                      0      0.00%     87.85% # Class of executed instruction
system.cpu3.op_class::SimdFloatAdd                  0      0.00%     87.85% # Class of executed instruction
system.cpu3.op_class::SimdFloatAlu                  0      0.00%     87.85% # Class of executed instruction
system.cpu3.op_class::SimdFloatCmp                  0      0.00%     87.85% # Class of executed instruction
system.cpu3.op_class::SimdFloatCvt                  0      0.00%     87.85% # Class of executed instruction
system.cpu3.op_class::SimdFloatDiv                  0      0.00%     87.85% # Class of executed instruction
system.cpu3.op_class::SimdFloatMisc                 0      0.00%     87.85% # Class of executed instruction
system.cpu3.op_class::SimdFloatMult                 0      0.00%     87.85% # Class of executed instruction
system.cpu3.op_class::SimdFloatMultAcc              0      0.00%     87.85% # Class of executed instruction
system.cpu3.op_class::SimdFloatSqrt                 0      0.00%     87.85% # Class of executed instruction
system.cpu3.op_class::MemRead                75416096      7.09%     94.94% # Class of executed instruction
system.cpu3.op_class::MemWrite               53892456      5.06%    100.00% # Class of executed instruction
system.cpu3.op_class::IprAccess                     0      0.00%    100.00% # Class of executed instruction
system.cpu3.op_class::InstPrefetch                  0      0.00%    100.00% # Class of executed instruction
system.cpu3.op_class::total                1064266795                       # Class of executed instruction
system.iobus.trans_dist::ReadReq                   83                       # Transaction distribution
system.iobus.trans_dist::ReadResp                  83                       # Transaction distribution
system.iobus.trans_dist::WriteReq                1756                       # Transaction distribution
system.iobus.trans_dist::WriteResp               1756                       # Transaction distribution
system.iobus.trans_dist::MessageReq                13                       # Transaction distribution
system.iobus.trans_dist::MessageResp               13                       # Transaction distribution
system.iobus.pkt_count_system.pc.south_bridge.io_apic.int_master::system.ruby.l1_cntrl0.sequencer.pio-slave-port            2                       # Packet count per connected master and slave (bytes)
system.iobus.pkt_count_system.pc.south_bridge.io_apic.int_master::system.ruby.l1_cntrl1.sequencer.pio-slave-port            4                       # Packet count per connected master and slave (bytes)
system.iobus.pkt_count_system.pc.south_bridge.io_apic.int_master::system.ruby.l1_cntrl2.sequencer.pio-slave-port            2                       # Packet count per connected master and slave (bytes)
system.iobus.pkt_count_system.pc.south_bridge.io_apic.int_master::system.ruby.l1_cntrl3.sequencer.pio-slave-port            2                       # Packet count per connected master and slave (bytes)
system.iobus.pkt_count_system.pc.south_bridge.io_apic.int_master::total           10                       # Packet count per connected master and slave (bytes)
system.iobus.pkt_count_system.ruby.l1_cntrl0.sequencer.mem-master-port::system.pc.south_bridge.io_apic.pio            6                       # Packet count per connected master and slave (bytes)
system.iobus.pkt_count_system.ruby.l1_cntrl0.sequencer.mem-master-port::system.pc.com_1.pio           22                       # Packet count per connected master and slave (bytes)
system.iobus.pkt_count_system.ruby.l1_cntrl0.sequencer.mem-master-port::system.ruby.l1_cntrl0.sequencer.pio-slave-port          858                       # Packet count per connected master and slave (bytes)
system.iobus.pkt_count_system.ruby.l1_cntrl0.sequencer.mem-master-port::system.ruby.l1_cntrl1.sequencer.pio-slave-port            2                       # Packet count per connected master and slave (bytes)
system.iobus.pkt_count_system.ruby.l1_cntrl0.sequencer.mem-master-port::total          888                       # Packet count per connected master and slave (bytes)
system.iobus.pkt_count_system.ruby.l1_cntrl1.sequencer.mem-master-port::system.pc.south_bridge.io_apic.pio           14                       # Packet count per connected master and slave (bytes)
system.iobus.pkt_count_system.ruby.l1_cntrl1.sequencer.mem-master-port::system.pc.com_1.pio          162                       # Packet count per connected master and slave (bytes)
system.iobus.pkt_count_system.ruby.l1_cntrl1.sequencer.mem-master-port::system.ruby.l1_cntrl0.sequencer.pio-slave-port            2                       # Packet count per connected master and slave (bytes)
system.iobus.pkt_count_system.ruby.l1_cntrl1.sequencer.mem-master-port::system.ruby.l1_cntrl1.sequencer.pio-slave-port          872                       # Packet count per connected master and slave (bytes)
system.iobus.pkt_count_system.ruby.l1_cntrl1.sequencer.mem-master-port::system.ruby.l1_cntrl2.sequencer.pio-slave-port            2                       # Packet count per connected master and slave (bytes)
system.iobus.pkt_count_system.ruby.l1_cntrl1.sequencer.mem-master-port::system.ruby.l1_cntrl3.sequencer.pio-slave-port            2                       # Packet count per connected master and slave (bytes)
system.iobus.pkt_count_system.ruby.l1_cntrl1.sequencer.mem-master-port::total         1054                       # Packet count per connected master and slave (bytes)
system.iobus.pkt_count_system.ruby.l1_cntrl2.sequencer.mem-master-port::system.pc.south_bridge.io_apic.pio            8                       # Packet count per connected master and slave (bytes)
system.iobus.pkt_count_system.ruby.l1_cntrl2.sequencer.mem-master-port::system.ruby.l1_cntrl2.sequencer.pio-slave-port          858                       # Packet count per connected master and slave (bytes)
system.iobus.pkt_count_system.ruby.l1_cntrl2.sequencer.mem-master-port::system.ruby.l1_cntrl3.sequencer.pio-slave-port            2                       # Packet count per connected master and slave (bytes)
system.iobus.pkt_count_system.ruby.l1_cntrl2.sequencer.mem-master-port::total          868                       # Packet count per connected master and slave (bytes)
system.iobus.pkt_count_system.ruby.l1_cntrl3.sequencer.mem-master-port::system.pc.south_bridge.io_apic.pio            8                       # Packet count per connected master and slave (bytes)
system.iobus.pkt_count_system.ruby.l1_cntrl3.sequencer.mem-master-port::system.ruby.l1_cntrl0.sequencer.pio-slave-port            2                       # Packet count per connected master and slave (bytes)
system.iobus.pkt_count_system.ruby.l1_cntrl3.sequencer.mem-master-port::system.ruby.l1_cntrl1.sequencer.pio-slave-port            2                       # Packet count per connected master and slave (bytes)
system.iobus.pkt_count_system.ruby.l1_cntrl3.sequencer.mem-master-port::system.ruby.l1_cntrl2.sequencer.pio-slave-port            2                       # Packet count per connected master and slave (bytes)
system.iobus.pkt_count_system.ruby.l1_cntrl3.sequencer.mem-master-port::system.ruby.l1_cntrl3.sequencer.pio-slave-port          870                       # Packet count per connected master and slave (bytes)
system.iobus.pkt_count_system.ruby.l1_cntrl3.sequencer.mem-master-port::total          884                       # Packet count per connected master and slave (bytes)
system.iobus.pkt_count::total                    3704                       # Packet count per connected master and slave (bytes)
system.iobus.pkt_size_system.pc.south_bridge.io_apic.int_master::system.ruby.l1_cntrl0.sequencer.pio-slave-port            4                       # Cumulative packet size per connected master and slave (bytes)
system.iobus.pkt_size_system.pc.south_bridge.io_apic.int_master::system.ruby.l1_cntrl1.sequencer.pio-slave-port            8                       # Cumulative packet size per connected master and slave (bytes)
system.iobus.pkt_size_system.pc.south_bridge.io_apic.int_master::system.ruby.l1_cntrl2.sequencer.pio-slave-port            4                       # Cumulative packet size per connected master and slave (bytes)
system.iobus.pkt_size_system.pc.south_bridge.io_apic.int_master::system.ruby.l1_cntrl3.sequencer.pio-slave-port            4                       # Cumulative packet size per connected master and slave (bytes)
system.iobus.pkt_size_system.pc.south_bridge.io_apic.int_master::total           20                       # Cumulative packet size per connected master and slave (bytes)
system.iobus.pkt_size_system.ruby.l1_cntrl0.sequencer.mem-master-port::system.pc.south_bridge.io_apic.pio           12                       # Cumulative packet size per connected master and slave (bytes)
system.iobus.pkt_size_system.ruby.l1_cntrl0.sequencer.mem-master-port::system.pc.com_1.pio           11                       # Cumulative packet size per connected master and slave (bytes)
system.iobus.pkt_size_system.ruby.l1_cntrl0.sequencer.mem-master-port::system.ruby.l1_cntrl0.sequencer.pio-slave-port         1716                       # Cumulative packet size per connected master and slave (bytes)
system.iobus.pkt_size_system.ruby.l1_cntrl0.sequencer.mem-master-port::system.ruby.l1_cntrl1.sequencer.pio-slave-port            4                       # Cumulative packet size per connected master and slave (bytes)
system.iobus.pkt_size_system.ruby.l1_cntrl0.sequencer.mem-master-port::total         1743                       # Cumulative packet size per connected master and slave (bytes)
system.iobus.pkt_size_system.ruby.l1_cntrl1.sequencer.mem-master-port::system.pc.south_bridge.io_apic.pio           28                       # Cumulative packet size per connected master and slave (bytes)
system.iobus.pkt_size_system.ruby.l1_cntrl1.sequencer.mem-master-port::system.pc.com_1.pio           81                       # Cumulative packet size per connected master and slave (bytes)
system.iobus.pkt_size_system.ruby.l1_cntrl1.sequencer.mem-master-port::system.ruby.l1_cntrl0.sequencer.pio-slave-port            4                       # Cumulative packet size per connected master and slave (bytes)
system.iobus.pkt_size_system.ruby.l1_cntrl1.sequencer.mem-master-port::system.ruby.l1_cntrl1.sequencer.pio-slave-port         1744                       # Cumulative packet size per connected master and slave (bytes)
system.iobus.pkt_size_system.ruby.l1_cntrl1.sequencer.mem-master-port::system.ruby.l1_cntrl2.sequencer.pio-slave-port            4                       # Cumulative packet size per connected master and slave (bytes)
system.iobus.pkt_size_system.ruby.l1_cntrl1.sequencer.mem-master-port::system.ruby.l1_cntrl3.sequencer.pio-slave-port            4                       # Cumulative packet size per connected master and slave (bytes)
system.iobus.pkt_size_system.ruby.l1_cntrl1.sequencer.mem-master-port::total         1865                       # Cumulative packet size per connected master and slave (bytes)
system.iobus.pkt_size_system.ruby.l1_cntrl2.sequencer.mem-master-port::system.pc.south_bridge.io_apic.pio           16                       # Cumulative packet size per connected master and slave (bytes)
system.iobus.pkt_size_system.ruby.l1_cntrl2.sequencer.mem-master-port::system.ruby.l1_cntrl2.sequencer.pio-slave-port         1716                       # Cumulative packet size per connected master and slave (bytes)
system.iobus.pkt_size_system.ruby.l1_cntrl2.sequencer.mem-master-port::system.ruby.l1_cntrl3.sequencer.pio-slave-port            4                       # Cumulative packet size per connected master and slave (bytes)
system.iobus.pkt_size_system.ruby.l1_cntrl2.sequencer.mem-master-port::total         1736                       # Cumulative packet size per connected master and slave (bytes)
system.iobus.pkt_size_system.ruby.l1_cntrl3.sequencer.mem-master-port::system.pc.south_bridge.io_apic.pio           16                       # Cumulative packet size per connected master and slave (bytes)
system.iobus.pkt_size_system.ruby.l1_cntrl3.sequencer.mem-master-port::system.ruby.l1_cntrl0.sequencer.pio-slave-port            4                       # Cumulative packet size per connected master and slave (bytes)
system.iobus.pkt_size_system.ruby.l1_cntrl3.sequencer.mem-master-port::system.ruby.l1_cntrl1.sequencer.pio-slave-port            4                       # Cumulative packet size per connected master and slave (bytes)
system.iobus.pkt_size_system.ruby.l1_cntrl3.sequencer.mem-master-port::system.ruby.l1_cntrl2.sequencer.pio-slave-port            4                       # Cumulative packet size per connected master and slave (bytes)
system.iobus.pkt_size_system.ruby.l1_cntrl3.sequencer.mem-master-port::system.ruby.l1_cntrl3.sequencer.pio-slave-port         1740                       # Cumulative packet size per connected master and slave (bytes)
system.iobus.pkt_size_system.ruby.l1_cntrl3.sequencer.mem-master-port::total         1768                       # Cumulative packet size per connected master and slave (bytes)
system.iobus.pkt_size::total                     7132                       # Cumulative packet size per connected master and slave (bytes)
system.iobus.reqLayer8.occupancy                33996                       # Layer occupancy (ticks)
system.iobus.reqLayer8.utilization                0.0                       # Layer utilization (%)
system.iobus.reqLayer12.occupancy              121500                       # Layer occupancy (ticks)
system.iobus.reqLayer12.utilization               0.0                       # Layer utilization (%)
system.iobus.reqLayer17.occupancy             1077000                       # Layer occupancy (ticks)
system.iobus.reqLayer17.utilization               0.0                       # Layer utilization (%)
system.iobus.reqLayer18.occupancy             1091498                       # Layer occupancy (ticks)
system.iobus.reqLayer18.utilization               0.0                       # Layer utilization (%)
system.iobus.reqLayer19.occupancy             1076500                       # Layer occupancy (ticks)
system.iobus.reqLayer19.utilization               0.0                       # Layer utilization (%)
system.iobus.reqLayer20.occupancy             1082282                       # Layer occupancy (ticks)
system.iobus.reqLayer20.utilization               0.0                       # Layer utilization (%)
system.iobus.respLayer0.occupancy                6000                       # Layer occupancy (ticks)
system.iobus.respLayer0.utilization               0.0                       # Layer utilization (%)
system.iobus.respLayer2.occupancy              668500                       # Layer occupancy (ticks)
system.iobus.respLayer2.utilization               0.0                       # Layer utilization (%)
system.iobus.respLayer4.occupancy              810000                       # Layer occupancy (ticks)
system.iobus.respLayer4.utilization               0.0                       # Layer utilization (%)
system.iobus.respLayer6.occupancy              651500                       # Layer occupancy (ticks)
system.iobus.respLayer6.utilization               0.0                       # Layer utilization (%)
system.iobus.respLayer8.occupancy              665000                       # Layer occupancy (ticks)
system.iobus.respLayer8.utilization               0.0                       # Layer utilization (%)
system.pc.south_bridge.ide.disks.dma_read_full_pages            0                       # Number of full page size DMA reads (not PRD).
system.pc.south_bridge.ide.disks.dma_read_bytes            0                       # Number of bytes transfered via DMA reads (not PRD).
system.pc.south_bridge.ide.disks.dma_read_txs            0                       # Number of DMA read transactions (not PRD).
system.pc.south_bridge.ide.disks.dma_write_full_pages            0                       # Number of full page size DMA writes.
system.pc.south_bridge.ide.disks.dma_write_bytes            0                       # Number of bytes transfered via DMA writes.
system.pc.south_bridge.ide.disks.dma_write_txs            0                       # Number of DMA write transactions.
system.ruby.clk_domain.clock                      500                       # Clock period in ticks
system.ruby.outstanding_req_hist_seqr::bucket_size            1                      
system.ruby.outstanding_req_hist_seqr::max_bucket            9                      
system.ruby.outstanding_req_hist_seqr::samples   1225435081                      
system.ruby.outstanding_req_hist_seqr::mean     1.000000                      
system.ruby.outstanding_req_hist_seqr::gmean     1.000000                      
system.ruby.outstanding_req_hist_seqr::stdev     0.000437                      
system.ruby.outstanding_req_hist_seqr    |           0      0.00%      0.00% |  1225434847    100.00%    100.00% |         234      0.00%    100.00% |           0      0.00%    100.00% |           0      0.00%    100.00% |           0      0.00%    100.00% |           0      0.00%    100.00% |           0      0.00%    100.00% |           0      0.00%    100.00% |           0      0.00%    100.00%
system.ruby.outstanding_req_hist_seqr::total   1225435081                      
system.ruby.latency_hist_seqr::bucket_size          256                      
system.ruby.latency_hist_seqr::max_bucket         2559                      
system.ruby.latency_hist_seqr::samples     1225435081                      
system.ruby.latency_hist_seqr::mean          1.774874                      
system.ruby.latency_hist_seqr::gmean         1.070625                      
system.ruby.latency_hist_seqr::stdev        10.107579                      
system.ruby.latency_hist_seqr            |  1225251412     99.99%     99.99% |       94903      0.01%     99.99% |       80074      0.01%    100.00% |        5770      0.00%    100.00% |        2095      0.00%    100.00% |         631      0.00%    100.00% |         152      0.00%    100.00% |          37      0.00%    100.00% |           7      0.00%    100.00% |           0      0.00%    100.00%
system.ruby.latency_hist_seqr::total       1225435081                      
system.ruby.hit_latency_hist_seqr::bucket_size            2                      
system.ruby.hit_latency_hist_seqr::max_bucket           19                      
system.ruby.hit_latency_hist_seqr::samples   1219522259                      
system.ruby.hit_latency_hist_seqr::mean      1.190469                      
system.ruby.hit_latency_hist_seqr::gmean     1.046732                      
system.ruby.hit_latency_hist_seqr::stdev     1.366898                      
system.ruby.hit_latency_hist_seqr        |  1196294146     98.10%     98.10% |           0      0.00%     98.10% |           0      0.00%     98.10% |           0      0.00%     98.10% |           0      0.00%     98.10% |    23228113      1.90%    100.00% |           0      0.00%    100.00% |           0      0.00%    100.00% |           0      0.00%    100.00% |           0      0.00%    100.00%
system.ruby.hit_latency_hist_seqr::total   1219522259                      
system.ruby.miss_latency_hist_seqr::bucket_size          256                      
system.ruby.miss_latency_hist_seqr::max_bucket         2559                      
system.ruby.miss_latency_hist_seqr::samples      5912822                      
system.ruby.miss_latency_hist_seqr::mean   122.308593                      
system.ruby.miss_latency_hist_seqr::gmean   112.550568                      
system.ruby.miss_latency_hist_seqr::stdev    78.671357                      
[...]
system.ruby.L1Cache_Controller.O.Trigger_L2_to_L1I::total        27762                      
system.ruby.L1Cache_Controller.O.Other_GETX |        2922     26.26%     26.26% |        3403     30.58%     56.84% |        2322     20.87%     77.70% |        2481     22.30%    100.00%
system.ruby.L1Cache_Controller.O.Other_GETX::total        11128                      
system.ruby.L1Cache_Controller.O.Other_GETS |        2651     16.82%     16.82% |        5685     36.07%     52.88% |        3295     20.90%     73.79% |        4132     26.21%    100.00%
system.ruby.L1Cache_Controller.O.Other_GETS::total        15763                      
system.ruby.L1Cache_Controller.M.Load    |       93428      0.29%      0.29% |      153502      0.48%      0.78% |      110610      0.35%      1.12% |    31487411     98.88%    100.00%
system.ruby.L1Cache_Controller.M.Load::total     31844951                      
system.ruby.L1Cache_Controller.M.Ifetch  |      239311      0.02%      0.02% |     3881228      0.38%      0.41% |      103178      0.01%      0.42% |  1007284956     99.58%    100.00%
system.ruby.L1Cache_Controller.M.Ifetch::total   1011508673                      
system.ruby.L1Cache_Controller.M.Store   |        2831      5.34%      5.34% |       18225     34.37%     39.71% |        5023      9.47%     49.18% |       26944     50.82%    100.00%
system.ruby.L1Cache_Controller.M.Store::total        53023                      
system.ruby.L1Cache_Controller.M.L2_Replacement |          18      0.00%      0.00% |         922      0.03%      0.03% |         152      0.00%      0.03% |     3153195     99.97%    100.00%
system.ruby.L1Cache_Controller.M.L2_Replacement::total      3154287                      
system.ruby.L1Cache_Controller.M.L1_to_L2 |       11773      0.16%      0.16% |        9623      0.13%      0.29% |        7770      0.11%      0.40% |     7301372     99.60%    100.00%
system.ruby.L1Cache_Controller.M.L1_to_L2::total      7330538                      
system.ruby.L1Cache_Controller.M.Trigger_L2_to_L1D |        3556      0.09%      0.09% |        4245      0.10%      0.19% |        2869      0.07%      0.26% |     4138477     99.74%    100.00%
system.ruby.L1Cache_Controller.M.Trigger_L2_to_L1D::total      4149147                      
system.ruby.L1Cache_Controller.M.Trigger_L2_to_L1I |        3332     54.69%     54.69% |         730     11.98%     66.67% |         810     13.29%     79.96% |        1221     20.04%    100.00%
system.ruby.L1Cache_Controller.M.Trigger_L2_to_L1I::total         6093                      
system.ruby.L1Cache_Controller.M.Other_GETX |         369     16.62%     16.62% |         179      8.06%     24.68% |        1019     45.90%     70.59% |         653     29.41%    100.00%
system.ruby.L1Cache_Controller.M.Other_GETX::total         2220                      
system.ruby.L1Cache_Controller.M.Other_GETS |        4715     27.23%     27.23% |        5464     31.56%     58.79% |        3400     19.64%     78.43% |        3735     21.57%    100.00%
system.ruby.L1Cache_Controller.M.Other_GETS::total        17314                      
system.ruby.L1Cache_Controller.M.Merged_GETS |          43     63.24%     63.24% |          21     30.88%     94.12% |           3      4.41%     98.53% |           1      1.47%    100.00%
system.ruby.L1Cache_Controller.M.Merged_GETS::total           68                      
system.ruby.L1Cache_Controller.MM.Load   |      498098      2.14%      2.14% |     2468093     10.59%     12.73% |      656011      2.81%     15.54% |    19683374     84.46%    100.00%
system.ruby.L1Cache_Controller.MM.Load::total     23305576                      
system.ruby.L1Cache_Controller.MM.Store  |      536912      0.75%      0.75% |     2264860      3.17%      3.93% |      751936      1.05%      4.98% |    67813239     95.02%    100.00%
system.ruby.L1Cache_Controller.MM.Store::total     71366947                      
system.ruby.L1Cache_Controller.MM.L2_Replacement |          38      0.00%      0.00% |        5311      0.20%      0.20% |         718      0.03%      0.23% |     2661164     99.77%    100.00%
system.ruby.L1Cache_Controller.MM.L2_Replacement::total      2667231                      
system.ruby.L1Cache_Controller.MM.L1_to_L2 |       18317      0.08%      0.08% |      166766      0.77%      0.85% |       28649      0.13%      0.99% |    21473927     99.01%    100.00%
system.ruby.L1Cache_Controller.MM.L1_to_L2::total     21687659                      
system.ruby.L1Cache_Controller.MM.Trigger_L2_to_L1D |        9154      0.05%      0.05% |      138307      0.73%      0.78% |       14460      0.08%      0.85% |    18778724     99.15%    100.00%
system.ruby.L1Cache_Controller.MM.Trigger_L2_to_L1D::total     18940645                      
system.ruby.L1Cache_Controller.MM.Other_GETX |         891      6.51%      6.51% |        4548     33.23%     39.74% |        1264      9.23%     48.97% |        6985     51.03%    100.00%
system.ruby.L1Cache_Controller.MM.Other_GETX::total        13688                      
system.ruby.L1Cache_Controller.MM.Other_GETS |        5790     16.03%     16.03% |        4272     11.83%     27.86% |        3988     11.04%     38.90% |       22064     61.10%    100.00%
system.ruby.L1Cache_Controller.MM.Other_GETS::total        36114                      
system.ruby.L1Cache_Controller.MM.Merged_GETS |          99     36.26%     36.26% |          31     11.36%     47.62% |          74     27.11%     74.73% |          69     25.27%    100.00%
system.ruby.L1Cache_Controller.MM.Merged_GETS::total          273                      
system.ruby.L1Cache_Controller.SR.Load   |        3805      1.75%      1.75% |        6859      3.15%      4.90% |        8278      3.81%      8.71% |      198585     91.29%    100.00%
system.ruby.L1Cache_Controller.SR.Load::total       217527                      
system.ruby.L1Cache_Controller.SR.Ifetch |       28133     28.91%     28.91% |       22213     22.82%     51.73% |       26184     26.90%     78.64% |       20793     21.36%    100.00%
system.ruby.L1Cache_Controller.SR.Ifetch::total        97323                      
system.ruby.L1Cache_Controller.SR.Store  |          64     11.92%     11.92% |          49      9.12%     21.04% |         155     28.86%     49.91% |         269     50.09%    100.00%
system.ruby.L1Cache_Controller.SR.Store::total          537                      
system.ruby.L1Cache_Controller.OR.Load   |        1494     19.23%     19.23% |        1356     17.45%     36.68% |        1361     17.52%     54.20% |        3559     45.80%    100.00%
system.ruby.L1Cache_Controller.OR.Load::total         7770                      
system.ruby.L1Cache_Controller.OR.Ifetch |        1080      3.89%      3.89% |        5887     21.21%     25.10% |        8527     30.71%     55.81% |       12268     44.19%    100.00%
system.ruby.L1Cache_Controller.OR.Ifetch::total        27762                      
system.ruby.L1Cache_Controller.OR.Store  |          70     67.31%     67.31% |          12     11.54%     78.85% |           8      7.69%     86.54% |          14     13.46%    100.00%
system.ruby.L1Cache_Controller.OR.Store::total          104                      
system.ruby.L1Cache_Controller.MR.Load   |        3001      0.07%      0.07% |        3323      0.08%      0.15% |        2023      0.05%      0.20% |     4137997     99.80%    100.00%
system.ruby.L1Cache_Controller.MR.Load::total      4146344                      
system.ruby.L1Cache_Controller.MR.Ifetch |        3332     54.69%     54.69% |         730     11.98%     66.67% |         810     13.29%     79.96% |        1221     20.04%    100.00%
system.ruby.L1Cache_Controller.MR.Ifetch::total         6093                      
system.ruby.L1Cache_Controller.MR.Store  |         555     19.80%     19.80% |         922     32.89%     52.69% |         846     30.18%     82.88% |         480     17.12%    100.00%
system.ruby.L1Cache_Controller.MR.Store::total         2803                      
system.ruby.L1Cache_Controller.MMR.Load  |        4748      0.05%      0.05% |       88893      0.94%      0.99% |        9127      0.10%      1.09% |     9326918     98.91%    100.00%
system.ruby.L1Cache_Controller.MMR.Load::total      9429686                      
system.ruby.L1Cache_Controller.MMR.Store |        4406      0.05%      0.05% |       49414      0.52%      0.57% |        5333      0.06%      0.62% |     9451806     99.38%    100.00%
system.ruby.L1Cache_Controller.MMR.Store::total      9510959                      
system.ruby.L1Cache_Controller.IM.Ack    |       13795      0.17%      0.17% |       21443      0.27%      0.44% |       13416      0.17%      0.60% |     7996132     99.40%    100.00%
system.ruby.L1Cache_Controller.IM.Ack::total      8044786                      
system.ruby.L1Cache_Controller.IM.Data   |        1621     41.14%     41.14% |         782     19.85%     60.99% |        1074     27.26%     88.25% |         463     11.75%    100.00%
system.ruby.L1Cache_Controller.IM.Data::total         3940                      
system.ruby.L1Cache_Controller.IM.Exclusive_Data |        6052      0.22%      0.22% |        9546      0.35%      0.58% |        7280      0.27%      0.85% |     2667135     99.15%    100.00%
system.ruby.L1Cache_Controller.IM.Exclusive_Data::total      2690013                      
system.ruby.L1Cache_Controller.SM.Other_GETX |           0      0.00%      0.00% |           1    100.00%    100.00% |           0      0.00%    100.00% |           0      0.00%    100.00%
system.ruby.L1Cache_Controller.SM.Other_GETX::total            1                      
system.ruby.L1Cache_Controller.SM.Ack    |        3149     41.64%     41.64% |        1280     16.92%     58.56% |        1496     19.78%     78.34% |        1638     21.66%    100.00%
system.ruby.L1Cache_Controller.SM.Ack::total         7563                      
system.ruby.L1Cache_Controller.SM.Data   |        2552     34.09%     34.09% |        1328     17.74%     51.84% |        1987     26.55%     78.38% |        1618     21.62%    100.00%
system.ruby.L1Cache_Controller.SM.Data::total         7485                      
system.ruby.L1Cache_Controller.OM.Ack    |         408     42.37%     42.37% |         225     23.36%     65.73% |         168     17.45%     83.18% |         162     16.82%    100.00%
system.ruby.L1Cache_Controller.OM.Ack::total          963                      
system.ruby.L1Cache_Controller.OM.All_acks_no_sharers |         136     42.37%     42.37% |          75     23.36%     65.73% |          56     17.45%     83.18% |          54     16.82%    100.00%
system.ruby.L1Cache_Controller.OM.All_acks_no_sharers::total          321                      
system.ruby.L1Cache_Controller.ISM.Ack   |        3664     30.45%     30.45% |        2289     19.02%     49.47% |        4052     33.67%     83.15% |        2028     16.85%    100.00%
system.ruby.L1Cache_Controller.ISM.Ack::total        12033                      
system.ruby.L1Cache_Controller.ISM.All_acks_no_sharers |        4173     36.53%     36.53% |        2110     18.47%     54.99% |        3061     26.79%     81.79% |        2081     18.21%    100.00%
system.ruby.L1Cache_Controller.ISM.All_acks_no_sharers::total        11425                      
system.ruby.L1Cache_Controller.M_W.Load  |          22     12.57%     12.57% |          20     11.43%     24.00% |          62     35.43%     59.43% |          71     40.57%    100.00%
system.ruby.L1Cache_Controller.M_W.Load::total          175                      
system.ruby.L1Cache_Controller.M_W.Store |          21     17.65%     17.65% |           2      1.68%     19.33% |           4      3.36%     22.69% |          92     77.31%    100.00%
system.ruby.L1Cache_Controller.M_W.Store::total          119                      
system.ruby.L1Cache_Controller.M_W.Ack   |        4282     15.05%     15.05% |       13392     47.08%     62.13% |        4943     17.38%     79.51% |        5830     20.49%    100.00%
system.ruby.L1Cache_Controller.M_W.Ack::total        28447                      
system.ruby.L1Cache_Controller.M_W.All_acks_no_sharers |        9937      0.31%      0.31% |       26440      0.82%      1.12% |       12559      0.39%      1.51% |     3189702     98.49%    100.00%
system.ruby.L1Cache_Controller.M_W.All_acks_no_sharers::total      3238638                      
system.ruby.L1Cache_Controller.MM_W.Load |           1    100.00%    100.00% |           0      0.00%    100.00% |           0      0.00%    100.00% |           0      0.00%    100.00%
system.ruby.L1Cache_Controller.MM_W.Load::total            1                      
system.ruby.L1Cache_Controller.MM_W.Store |        1092     20.87%     20.87% |        1942     37.12%     57.99% |        1377     26.32%     84.31% |         821     15.69%    100.00%
system.ruby.L1Cache_Controller.MM_W.Store::total         5232                      
system.ruby.L1Cache_Controller.MM_W.Ack  |        2794     21.47%     21.47% |        3104     23.85%     45.32% |        4195     32.23%     77.55% |        2922     22.45%    100.00%
system.ruby.L1Cache_Controller.MM_W.Ack::total        13015                      
system.ruby.L1Cache_Controller.MM_W.All_acks_no_sharers |        6073      0.23%      0.23% |        9548      0.35%      0.58% |        7284      0.27%      0.85% |     2667227     99.15%    100.00%
system.ruby.L1Cache_Controller.MM_W.All_acks_no_sharers::total      2690132                      
system.ruby.L1Cache_Controller.IS.Other_GETS |           0      0.00%      0.00% |           0      0.00%      0.00% |           0      0.00%      0.00% |           1    100.00%    100.00%
system.ruby.L1Cache_Controller.IS.Other_GETS::total            1                      
system.ruby.L1Cache_Controller.IS.Ack    |       26583      0.27%      0.27% |       54383      0.56%      0.84% |       40508      0.42%      1.25% |     9569902     98.75%    100.00%
system.ruby.L1Cache_Controller.IS.Ack::total      9691376                      
system.ruby.L1Cache_Controller.IS.Shared_Ack |       11262     28.95%     28.95% |        1968      5.06%     34.01% |        9284     23.86%     57.87% |       16392     42.13%    100.00%
system.ruby.L1Cache_Controller.IS.Shared_Ack::total        38906                      
system.ruby.L1Cache_Controller.IS.Data   |        3666     24.35%     24.35% |        1015      6.74%     31.09% |        3912     25.98%     57.08% |        6462     42.92%    100.00%
system.ruby.L1Cache_Controller.IS.Data::total        15055                      
system.ruby.L1Cache_Controller.IS.Shared_Data |        7127     21.33%     21.33% |        8127     24.32%     45.64% |       10259     30.70%     76.34% |        7907     23.66%    100.00%
system.ruby.L1Cache_Controller.IS.Shared_Data::total        33420                      
system.ruby.L1Cache_Controller.IS.Exclusive_Data |        9958      0.31%      0.31% |       26442      0.82%      1.12% |       12563      0.39%      1.51% |     3189794     98.49%    100.00%
system.ruby.L1Cache_Controller.IS.Exclusive_Data::total      3238757                      
system.ruby.L1Cache_Controller.SS.Load   |          22      4.78%      4.78% |         189     41.09%     45.87% |         138     30.00%     75.87% |         111     24.13%    100.00%
system.ruby.L1Cache_Controller.SS.Load::total          460                      
system.ruby.L1Cache_Controller.SS.Ifetch |         607     11.59%     11.59% |         668     12.76%     24.35% |        1622     30.98%     55.33% |        2339     44.67%    100.00%
system.ruby.L1Cache_Controller.SS.Ifetch::total         5236                      
system.ruby.L1Cache_Controller.SS.Store  |          22     64.71%     64.71% |           3      8.82%     73.53% |           3      8.82%     82.35% |           6     17.65%    100.00%
system.ruby.L1Cache_Controller.SS.Store::total           34                      
system.ruby.L1Cache_Controller.SS.Ack    |        4772     20.37%     20.37% |        7315     31.23%     51.60% |        7080     30.22%     81.82% |        4258     18.18%    100.00%
system.ruby.L1Cache_Controller.SS.Ack::total        23425                      
system.ruby.L1Cache_Controller.SS.Shared_Ack |        2809     30.52%     30.52% |         647      7.03%     37.54% |        2626     28.53%     66.07% |        3123     33.93%    100.00%
system.ruby.L1Cache_Controller.SS.Shared_Ack::total         9205                      
system.ruby.L1Cache_Controller.SS.All_acks |       10771     22.50%     22.50% |        8717     18.21%     40.70% |       14150     29.55%     70.25% |       14242     29.75%    100.00%
system.ruby.L1Cache_Controller.SS.All_acks::total        47880                      
system.ruby.L1Cache_Controller.SS.All_acks_no_sharers |          22      3.70%      3.70% |         425     71.43%     75.13% |          21      3.53%     78.66% |         127     21.34%    100.00%
system.ruby.L1Cache_Controller.SS.All_acks_no_sharers::total          595                      
system.ruby.L1Cache_Controller.OI.Load   |           0      0.00%      0.00% |           2    100.00%    100.00% |           0      0.00%    100.00% |           0      0.00%    100.00%
system.ruby.L1Cache_Controller.OI.Load::total            2                      
system.ruby.L1Cache_Controller.OI.Ifetch |           0      0.00%      0.00% |           1    100.00%    100.00% |           0      0.00%    100.00% |           0      0.00%    100.00%
system.ruby.L1Cache_Controller.OI.Ifetch::total            1                      
system.ruby.L1Cache_Controller.OI.Writeback_Ack |           3      0.06%      0.06% |         657     12.70%     12.75% |         162      3.13%     15.88% |        4353     84.12%    100.00%
system.ruby.L1Cache_Controller.OI.Writeback_Ack::total         5175                      
system.ruby.L1Cache_Controller.MI.Load   |           0      0.00%      0.00% |          12      8.05%      8.05% |           1      0.67%      8.72% |         136     91.28%    100.00%
system.ruby.L1Cache_Controller.MI.Load::total          149                      
system.ruby.L1Cache_Controller.MI.Store  |           0      0.00%      0.00% |           7      1.85%      1.85% |           0      0.00%      1.85% |         371     98.15%    100.00%
system.ruby.L1Cache_Controller.MI.Store::total          378                      
system.ruby.L1Cache_Controller.MI.Writeback_Ack |          56      0.00%      0.00% |        6233      0.11%      0.11% |         870      0.01%      0.12% |     5814359     99.88%    100.00%
system.ruby.L1Cache_Controller.MI.Writeback_Ack::total      5821518                      
system.ruby.L1Cache_Controller.ST.Complete_L2_to_L1 |       32002     10.15%     10.15% |       29121      9.23%     19.38% |       34617     10.98%     30.36% |      219647     69.64%    100.00%
system.ruby.L1Cache_Controller.ST.Complete_L2_to_L1::total       315387                      
system.ruby.L1Cache_Controller.OT.Complete_L2_to_L1 |        2644      7.42%      7.42% |        7255     20.36%     27.78% |        9896     27.77%     55.55% |       15841     44.45%    100.00%
system.ruby.L1Cache_Controller.OT.Complete_L2_to_L1::total        35636                      
system.ruby.L1Cache_Controller.MT.Complete_L2_to_L1 |        6888      0.17%      0.17% |        4975      0.12%      0.29% |        3679      0.09%      0.37% |     4139698     99.63%    100.00%
system.ruby.L1Cache_Controller.MT.Complete_L2_to_L1::total      4155240                      
system.ruby.L1Cache_Controller.MMT.Complete_L2_to_L1 |        9154      0.05%      0.05% |      138307      0.73%      0.78% |       14460      0.08%      0.85% |    18778724     99.15%    100.00%
system.ruby.L1Cache_Controller.MMT.Complete_L2_to_L1::total     18940645                      

---------- End Simulation Statistics   ----------
