
---------- Begin Simulation Statistics ----------
sim_seconds                                  4.029865                       # Number of seconds simulated
sim_ticks                                4029865065000                       # Number of ticks simulated
final_tick                               57182144461001                       # Number of ticks from beginning of simulation (restored from checkpoints and never reset)
sim_freq                                 1000000000000                       # Frequency of simulated ticks
host_inst_rate                                 122825                       # Simulator instruction rate (inst/s)
host_op_rate                                   205961                       # Simulator op (including micro ops) rate (op/s)
host_tick_rate                              322161278                       # Simulator tick rate (ticks/s)
host_mem_usage                                1965232                       # Number of bytes of host memory used
host_seconds                                 12508.84                       # Real time elapsed on the host
sim_insts                                  1536398768                       # Number of instructions simulated
sim_ops                                    2576335215                       # Number of ops (including micro ops) simulated
system.voltage_domain.voltage                       1                       # Voltage in Volts
system.clk_domain.clock                          1000                       # Clock period in ticks
system.mem_ctrls0.bytes_read::ruby.dir_cntrl0    375335296                       # Number of bytes read from this memory
system.mem_ctrls0.bytes_read::total         375335296                       # Number of bytes read from this memory
system.mem_ctrls0.bytes_written::ruby.dir_cntrl0    373796736                       # Number of bytes written to this memory
system.mem_ctrls0.bytes_written::total      373796736                       # Number of bytes written to this memory
system.mem_ctrls0.num_reads::ruby.dir_cntrl0      5864614                       # Number of read requests responded to by this memory
system.mem_ctrls0.num_reads::total            5864614                       # Number of read requests responded to by this memory
system.mem_ctrls0.num_writes::ruby.dir_cntrl0      5840574                       # Number of write requests responded to by this memory
system.mem_ctrls0.num_writes::total           5840574                       # Number of write requests responded to by this memory
system.mem_ctrls0.bw_read::ruby.dir_cntrl0     93138428                       # Total read bandwidth from this memory (bytes/s)
system.mem_ctrls0.bw_read::total             93138428                       # Total read bandwidth from this memory (bytes/s)
system.mem_ctrls0.bw_write::ruby.dir_cntrl0     92756638                       # Write bandwidth from this memory (bytes/s)
system.mem_ctrls0.bw_write::total            92756638                       # Write bandwidth from this memory (bytes/s)
system.mem_ctrls0.bw_total::ruby.dir_cntrl0    185895066                       # Total bandwidth to/from this memory (bytes/s)
system.mem_ctrls0.bw_total::total           185895066                       # Total bandwidth to/from this memory (bytes/s)
system.mem_ctrls0.readReqs                    5864614                       # Number of read requests accepted
system.mem_ctrls0.writeReqs                   5840574                       # Number of write requests accepted
system.mem_ctrls0.readBursts                  5864614                       # Number of DRAM read bursts, including those serviced by the write queue
system.mem_ctrls0.writeBursts                 5840574                       # Number of DRAM write bursts, including those merged in the write queue
system.mem_ctrls0.bytesReadDRAM             217146560                       # Total number of bytes read from DRAM
system.mem_ctrls0.bytesReadWrQ              158188736                       # Total number of bytes read from write queue
system.mem_ctrls0.bytesWritten              304366912                       # Total number of bytes written to DRAM
system.mem_ctrls0.bytesReadSys              375335296                       # Total read bytes from the system interface side
system.mem_ctrls0.bytesWrittenSys           373796736                       # Total written bytes from the system interface side
system.mem_ctrls0.servicedByWrQ               2471699                       # Number of DRAM read bursts serviced by the write queue
system.mem_ctrls0.mergedWrBursts              1084839                       # Number of DRAM write bursts merged with an existing one
system.mem_ctrls0.neitherReadNorWriteReqs            0                       # Number of requests that are neither read nor write
system.mem_ctrls0.perBankRdBursts::0           385182                       # Per bank write bursts
system.mem_ctrls0.perBankRdBursts::1           125322                       # Per bank write bursts
system.mem_ctrls0.perBankRdBursts::2           159548                       # Per bank write bursts
system.mem_ctrls0.perBankRdBursts::3           363214                       # Per bank write bursts
system.mem_ctrls0.perBankRdBursts::4           286025                       # Per bank write bursts
system.mem_ctrls0.perBankRdBursts::5           157998                       # Per bank write bursts
system.mem_ctrls0.perBankRdBursts::6           229915                       # Per bank write bursts
system.mem_ctrls0.perBankRdBursts::7           197424                       # Per bank write bursts
system.mem_ctrls0.perBankRdBursts::8           214359                       # Per bank write bursts
system.mem_ctrls0.perBankRdBursts::9           181469                       # Per bank write bursts
system.mem_ctrls0.perBankRdBursts::10          314251                       # Per bank write bursts
system.mem_ctrls0.perBankRdBursts::11          110054                       # Per bank write bursts
system.mem_ctrls0.perBankRdBursts::12           75158                       # Per bank write bursts
system.mem_ctrls0.perBankRdBursts::13          200260                       # Per bank write bursts
system.mem_ctrls0.perBankRdBursts::14          238609                       # Per bank write bursts
system.mem_ctrls0.perBankRdBursts::15          154127                       # Per bank write bursts
system.mem_ctrls0.perBankWrBursts::0           757119                       # Per bank write bursts
system.mem_ctrls0.perBankWrBursts::1           168377                       # Per bank write bursts
system.mem_ctrls0.perBankWrBursts::2           212605                       # Per bank write bursts
system.mem_ctrls0.perBankWrBursts::3           527388                       # Per bank write bursts
system.mem_ctrls0.perBankWrBursts::4           376637                       # Per bank write bursts
system.mem_ctrls0.perBankWrBursts::5           202043                       # Per bank write bursts
system.mem_ctrls0.perBankWrBursts::6           309061                       # Per bank write bursts
system.mem_ctrls0.perBankWrBursts::7           243949                       # Per bank write bursts
system.mem_ctrls0.perBankWrBursts::8           297083                       # Per bank write bursts
system.mem_ctrls0.perBankWrBursts::9           240609                       # Per bank write bursts
system.mem_ctrls0.perBankWrBursts::10          394497                       # Per bank write bursts
system.mem_ctrls0.perBankWrBursts::11          139918                       # Per bank write bursts
system.mem_ctrls0.perBankWrBursts::12           90040                       # Per bank write bursts
system.mem_ctrls0.perBankWrBursts::13          268650                       # Per bank write bursts
system.mem_ctrls0.perBankWrBursts::14          312046                       # Per bank write bursts
system.mem_ctrls0.perBankWrBursts::15          215711                       # Per bank write bursts
system.mem_ctrls0.numRdRetry                        0                       # Number of times read queue was full causing retry
system.mem_ctrls0.numWrRetry                        0                       # Number of times write queue was full causing retry
system.mem_ctrls0.totGap                 4029865001500                       # Total gap between requests
system.mem_ctrls0.readPktSize::0                    0                       # Read request sizes (log2)
system.mem_ctrls0.readPktSize::1                    0                       # Read request sizes (log2)
system.mem_ctrls0.readPktSize::2                    0                       # Read request sizes (log2)
system.mem_ctrls0.readPktSize::3                    0                       # Read request sizes (log2)
system.mem_ctrls0.readPktSize::4                    0                       # Read request sizes (log2)
system.mem_ctrls0.readPktSize::5                    0                       # Read request sizes (log2)
system.mem_ctrls0.readPktSize::6              5864614                       # Read request sizes (log2)
system.mem_ctrls0.writePktSize::0                   0                       # Write request sizes (log2)
system.mem_ctrls0.writePktSize::1                   0                       # Write request sizes (log2)
system.mem_ctrls0.writePktSize::2                   0                       # Write request sizes (log2)
system.mem_ctrls0.writePktSize::3                   0                       # Write request sizes (log2)
system.mem_ctrls0.writePktSize::4                   0                       # Write request sizes (log2)
system.mem_ctrls0.writePktSize::5                   0                       # Write request sizes (log2)
system.mem_ctrls0.writePktSize::6             5840574                       # Write request sizes (log2)
system.mem_ctrls0.rdQLenPdf::0                3388053                       # What read queue length does an incoming req see
system.mem_ctrls0.rdQLenPdf::1                   4828                       # What read queue length does an incoming req see
system.mem_ctrls0.rdQLenPdf::2                     34                       # What read queue length does an incoming req see
system.mem_ctrls0.rdQLenPdf::3                      0                       # What read queue length does an incoming req see
system.mem_ctrls0.rdQLenPdf::4                      0                       # What read queue length does an incoming req see
system.mem_ctrls0.rdQLenPdf::5                      0                       # What read queue length does an incoming req see
system.mem_ctrls0.rdQLenPdf::6                      0                       # What read queue length does an incoming req see
system.mem_ctrls0.rdQLenPdf::7                      0                       # What read queue length does an incoming req see
system.mem_ctrls0.rdQLenPdf::8                      0                       # What read queue length does an incoming req see
system.mem_ctrls0.rdQLenPdf::9                      0                       # What read queue length does an incoming req see
system.mem_ctrls0.rdQLenPdf::10                     0                       # What read queue length does an incoming req see
system.mem_ctrls0.rdQLenPdf::11                     0                       # What read queue length does an incoming req see
system.mem_ctrls0.rdQLenPdf::12                     0                       # What read queue length does an incoming req see
system.mem_ctrls0.rdQLenPdf::13                     0                       # What read queue length does an incoming req see
system.mem_ctrls0.rdQLenPdf::14                     0                       # What read queue length does an incoming req see
system.mem_ctrls0.rdQLenPdf::15                     0                       # What read queue length does an incoming req see
system.mem_ctrls0.rdQLenPdf::16                     0                       # What read queue length does an incoming req see
system.mem_ctrls0.rdQLenPdf::17                     0                       # What read queue length does an incoming req see
system.mem_ctrls0.rdQLenPdf::18                     0                       # What read queue length does an incoming req see
system.mem_ctrls0.rdQLenPdf::19                     0                       # What read queue length does an incoming req see
system.mem_ctrls0.rdQLenPdf::20                     0                       # What read queue length does an incoming req see
system.mem_ctrls0.rdQLenPdf::21                     0                       # What read queue length does an incoming req see
system.mem_ctrls0.rdQLenPdf::22                     0                       # What read queue length does an incoming req see
system.mem_ctrls0.rdQLenPdf::23                     0                       # What read queue length does an incoming req see
system.mem_ctrls0.rdQLenPdf::24                     0                       # What read queue length does an incoming req see
system.mem_ctrls0.rdQLenPdf::25                     0                       # What read queue length does an incoming req see
system.mem_ctrls0.rdQLenPdf::26                     0                       # What read queue length does an incoming req see
system.mem_ctrls0.rdQLenPdf::27                     0                       # What read queue length does an incoming req see
system.mem_ctrls0.rdQLenPdf::28                     0                       # What read queue length does an incoming req see
system.mem_ctrls0.rdQLenPdf::29                     0                       # What read queue length does an incoming req see
system.mem_ctrls0.rdQLenPdf::30                     0                       # What read queue length does an incoming req see
system.mem_ctrls0.rdQLenPdf::31                     0                       # What read queue length does an incoming req see
system.mem_ctrls0.wrQLenPdf::0                      0                       # What write queue length does an incoming req see
system.mem_ctrls0.wrQLenPdf::1                      0                       # What write queue length does an incoming req see
system.mem_ctrls0.wrQLenPdf::2                      0                       # What write queue length does an incoming req see
system.mem_ctrls0.wrQLenPdf::3                      0                       # What write queue length does an incoming req see
system.mem_ctrls0.wrQLenPdf::4                      0                       # What write queue length does an incoming req see
system.mem_ctrls0.wrQLenPdf::5                      0                       # What write queue length does an incoming req see
system.mem_ctrls0.wrQLenPdf::6                      0                       # What write queue length does an incoming req see
system.mem_ctrls0.wrQLenPdf::7                      0                       # What write queue length does an incoming req see
system.mem_ctrls0.wrQLenPdf::8                      0                       # What write queue length does an incoming req see
system.mem_ctrls0.wrQLenPdf::9                      0                       # What write queue length does an incoming req see
system.mem_ctrls0.wrQLenPdf::10                     0                       # What write queue length does an incoming req see
system.mem_ctrls0.wrQLenPdf::11                     0                       # What write queue length does an incoming req see
system.mem_ctrls0.wrQLenPdf::12                     0                       # What write queue length does an incoming req see
system.mem_ctrls0.wrQLenPdf::13                     0                       # What write queue length does an incoming req see
system.mem_ctrls0.wrQLenPdf::14                     0                       # What write queue length does an incoming req see
system.mem_ctrls0.wrQLenPdf::15                 94431                       # What write queue length does an incoming req see
system.mem_ctrls0.wrQLenPdf::16                 95675                       # What write queue length does an incoming req see
system.mem_ctrls0.wrQLenPdf::17                280285                       # What write queue length does an incoming req see
system.mem_ctrls0.wrQLenPdf::18                285781                       # What write queue length does an incoming req see
system.mem_ctrls0.wrQLenPdf::19                285968                       # What write queue length does an incoming req see
system.mem_ctrls0.wrQLenPdf::20                286126                       # What write queue length does an incoming req see
system.mem_ctrls0.wrQLenPdf::21                286341                       # What write queue length does an incoming req see
system.mem_ctrls0.wrQLenPdf::22                286315                       # What write queue length does an incoming req see
system.mem_ctrls0.wrQLenPdf::23                286408                       # What write queue length does an incoming req see
system.mem_ctrls0.wrQLenPdf::24                286273                       # What write queue length does an incoming req see
system.mem_ctrls0.wrQLenPdf::25                286133                       # What write queue length does an incoming req see
system.mem_ctrls0.wrQLenPdf::26                285477                       # What write queue length does an incoming req see
system.mem_ctrls0.wrQLenPdf::27                285038                       # What write queue length does an incoming req see
system.mem_ctrls0.wrQLenPdf::28                285007                       # What write queue length does an incoming req see
system.mem_ctrls0.wrQLenPdf::29                285027                       # What write queue length does an incoming req see
system.mem_ctrls0.wrQLenPdf::30                284997                       # What write queue length does an incoming req see
system.mem_ctrls0.wrQLenPdf::31                284981                       # What write queue length does an incoming req see
system.mem_ctrls0.wrQLenPdf::32                284980                       # What write queue length does an incoming req see
system.mem_ctrls0.wrQLenPdf::33                   451                       # What write queue length does an incoming req see
system.mem_ctrls0.wrQLenPdf::34                    39                       # What write queue length does an incoming req see
system.mem_ctrls0.wrQLenPdf::35                     2                       # What write queue length does an incoming req see
system.mem_ctrls0.wrQLenPdf::36                     0                       # What write queue length does an incoming req see
system.mem_ctrls0.wrQLenPdf::37                     0                       # What write queue length does an incoming req see
system.mem_ctrls0.wrQLenPdf::38                     0                       # What write queue length does an incoming req see
system.mem_ctrls0.wrQLenPdf::39                     0                       # What write queue length does an incoming req see
system.mem_ctrls0.wrQLenPdf::40                     0                       # What write queue length does an incoming req see
system.mem_ctrls0.wrQLenPdf::41                     0                       # What write queue length does an incoming req see
system.mem_ctrls0.wrQLenPdf::42                     0                       # What write queue length does an incoming req see
system.mem_ctrls0.wrQLenPdf::43                     0                       # What write queue length does an incoming req see
system.mem_ctrls0.wrQLenPdf::44                     0                       # What write queue length does an incoming req see
system.mem_ctrls0.wrQLenPdf::45                     0                       # What write queue length does an incoming req see
system.mem_ctrls0.wrQLenPdf::46                     0                       # What write queue length does an incoming req see
system.mem_ctrls0.wrQLenPdf::47                     0                       # What write queue length does an incoming req see
system.mem_ctrls0.wrQLenPdf::48                     0                       # What write queue length does an incoming req see
system.mem_ctrls0.wrQLenPdf::49                     0                       # What write queue length does an incoming req see
system.mem_ctrls0.wrQLenPdf::50                     0                       # What write queue length does an incoming req see
system.mem_ctrls0.wrQLenPdf::51                     0                       # What write queue length does an incoming req see
system.mem_ctrls0.wrQLenPdf::52                     0                       # What write queue length does an incoming req see
system.mem_ctrls0.wrQLenPdf::53                     0                       # What write queue length does an incoming req see
system.mem_ctrls0.wrQLenPdf::54                     0                       # What write queue length does an incoming req see
system.mem_ctrls0.wrQLenPdf::55                     0                       # What write queue length does an incoming req see
system.mem_ctrls0.wrQLenPdf::56                     0                       # What write queue length does an incoming req see
system.mem_ctrls0.wrQLenPdf::57                     0                       # What write queue length does an incoming req see
system.mem_ctrls0.wrQLenPdf::58                     0                       # What write queue length does an incoming req see
system.mem_ctrls0.wrQLenPdf::59                     0                       # What write queue length does an incoming req see
system.mem_ctrls0.wrQLenPdf::60                     0                       # What write queue length does an incoming req see
system.mem_ctrls0.wrQLenPdf::61                     0                       # What write queue length does an incoming req see
system.mem_ctrls0.wrQLenPdf::62                     0                       # What write queue length does an incoming req see
system.mem_ctrls0.wrQLenPdf::63                     0                       # What write queue length does an incoming req see
system.mem_ctrls0.bytesPerActivate::samples      4885243                       # Bytes accessed per row activation
system.mem_ctrls0.bytesPerActivate::mean   106.752782                       # Bytes accessed per row activation
system.mem_ctrls0.bytesPerActivate::gmean    91.356730                       # Bytes accessed per row activation
system.mem_ctrls0.bytesPerActivate::stdev    74.316035                       # Bytes accessed per row activation
system.mem_ctrls0.bytesPerActivate::0-127      3061552     62.67%     62.67% # Bytes accessed per row activation
system.mem_ctrls0.bytesPerActivate::128-255      1470820     30.11%     92.78% # Bytes accessed per row activation
system.mem_ctrls0.bytesPerActivate::256-383       274861      5.63%     98.40% # Bytes accessed per row activation
system.mem_ctrls0.bytesPerActivate::384-511        61548      1.26%     99.66% # Bytes accessed per row activation
system.mem_ctrls0.bytesPerActivate::512-639        12172      0.25%     99.91% # Bytes accessed per row activation
system.mem_ctrls0.bytesPerActivate::640-767         2470      0.05%     99.96% # Bytes accessed per row activation
system.mem_ctrls0.bytesPerActivate::768-895          615      0.01%     99.98% # Bytes accessed per row activation
system.mem_ctrls0.bytesPerActivate::896-1023          246      0.01%     99.98% # Bytes accessed per row activation
system.mem_ctrls0.bytesPerActivate::1024-1151          959      0.02%    100.00% # Bytes accessed per row activation
system.mem_ctrls0.bytesPerActivate::total      4885243                       # Bytes accessed per row activation
system.mem_ctrls0.rdPerTurnAround::samples       284980                       # Reads before turning the bus around for writes
system.mem_ctrls0.rdPerTurnAround::mean     11.905814                       # Reads before turning the bus around for writes
system.mem_ctrls0.rdPerTurnAround::stdev     4.699813                       # Reads before turning the bus around for writes
system.mem_ctrls0.rdPerTurnAround::0-15        258167     90.59%     90.59% # Reads before turning the bus around for writes
system.mem_ctrls0.rdPerTurnAround::16-31        26086      9.15%     99.74% # Reads before turning the bus around for writes
system.mem_ctrls0.rdPerTurnAround::32-47          544      0.19%     99.94% # Reads before turning the bus around for writes
system.mem_ctrls0.rdPerTurnAround::48-63           52      0.02%     99.95% # Reads before turning the bus around for writes
system.mem_ctrls0.rdPerTurnAround::64-79           36      0.01%     99.97% # Reads before turning the bus around for writes
system.mem_ctrls0.rdPerTurnAround::80-95           21      0.01%     99.97% # Reads before turning the bus around for writes
system.mem_ctrls0.rdPerTurnAround::96-111           14      0.00%     99.98% # Reads before turning the bus around for writes
system.mem_ctrls0.rdPerTurnAround::112-127            9      0.00%     99.98% # Reads before turning the bus around for writes
system.mem_ctrls0.rdPerTurnAround::128-143            7      0.00%     99.98% # Reads before turning the bus around for writes
system.mem_ctrls0.rdPerTurnAround::144-159            3      0.00%     99.99% # Reads before turning the bus around for writes
system.mem_ctrls0.rdPerTurnAround::160-175            4      0.00%     99.99% # Reads before turning the bus around for writes
system.mem_ctrls0.rdPerTurnAround::176-191            4      0.00%     99.99% # Reads before turning the bus around for writes
system.mem_ctrls0.rdPerTurnAround::192-207            6      0.00%     99.99% # Reads before turning the bus around for writes
system.mem_ctrls0.rdPerTurnAround::208-223            8      0.00%     99.99% # Reads before turning the bus around for writes
system.mem_ctrls0.rdPerTurnAround::240-255            2      0.00%     99.99% # Reads before turning the bus around for writes
system.mem_ctrls0.rdPerTurnAround::256-271            2      0.00%     99.99% # Reads before turning the bus around for writes
system.mem_ctrls0.rdPerTurnAround::272-287            3      0.00%    100.00% # Reads before turning the bus around for writes
system.mem_ctrls0.rdPerTurnAround::288-303            2      0.00%    100.00% # Reads before turning the bus around for writes
system.mem_ctrls0.rdPerTurnAround::320-335            1      0.00%    100.00% # Reads before turning the bus around for writes
system.mem_ctrls0.rdPerTurnAround::336-351            1      0.00%    100.00% # Reads before turning the bus around for writes
system.mem_ctrls0.rdPerTurnAround::352-367            1      0.00%    100.00% # Reads before turning the bus around for writes
system.mem_ctrls0.rdPerTurnAround::368-383            2      0.00%    100.00% # Reads before turning the bus around for writes
system.mem_ctrls0.rdPerTurnAround::384-399            1      0.00%    100.00% # Reads before turning the bus around for writes
system.mem_ctrls0.rdPerTurnAround::400-415            1      0.00%    100.00% # Reads before turning the bus around for writes
system.mem_ctrls0.rdPerTurnAround::416-431            1      0.00%    100.00% # Reads before turning the bus around for writes
system.mem_ctrls0.rdPerTurnAround::432-447            1      0.00%    100.00% # Reads before turning the bus around for writes
system.mem_ctrls0.rdPerTurnAround::464-479            1      0.00%    100.00% # Reads before turning the bus around for writes
system.mem_ctrls0.rdPerTurnAround::total       284980                       # Reads before turning the bus around for writes
system.mem_ctrls0.wrPerTurnAround::samples       284980                       # Writes before turning the bus around for reads
system.mem_ctrls0.wrPerTurnAround::mean     16.687954                       # Writes before turning the bus around for reads
system.mem_ctrls0.wrPerTurnAround::gmean    16.659965                       # Writes before turning the bus around for reads
system.mem_ctrls0.wrPerTurnAround::stdev     0.980805                       # Writes before turning the bus around for reads
system.mem_ctrls0.wrPerTurnAround::16          189490     66.49%     66.49% # Writes before turning the bus around for reads
system.mem_ctrls0.wrPerTurnAround::17             607      0.21%     66.71% # Writes before turning the bus around for reads
system.mem_ctrls0.wrPerTurnAround::18           89433     31.38%     98.09% # Writes before turning the bus around for reads
system.mem_ctrls0.wrPerTurnAround::19            5230      1.84%     99.92% # Writes before turning the bus around for reads
system.mem_ctrls0.wrPerTurnAround::20             210      0.07%    100.00% # Writes before turning the bus around for reads
system.mem_ctrls0.wrPerTurnAround::21              10      0.00%    100.00% # Writes before turning the bus around for reads
system.mem_ctrls0.wrPerTurnAround::total       284980                       # Writes before turning the bus around for reads
system.mem_ctrls0.totQLat                 66643198456                       # Total ticks spent queuing
system.mem_ctrls0.totMemAccLat           130260354706                       # Total ticks spent from burst creation until serviced by the DRAM
system.mem_ctrls0.totBusLat               16964575000                       # Total ticks spent in databus transfers
system.mem_ctrls0.avgQLat                    19641.87                       # Average queueing delay per DRAM burst
system.mem_ctrls0.avgBusLat                   5000.00                       # Average bus latency per DRAM burst
system.mem_ctrls0.avgMemAccLat               38391.87                       # Average memory access latency per DRAM burst
system.mem_ctrls0.avgRdBW                       53.88                       # Average DRAM read bandwidth in MiByte/s
system.mem_ctrls0.avgWrBW                       75.53                       # Average achieved write bandwidth in MiByte/s
system.mem_ctrls0.avgRdBWSys                    93.14                       # Average system read bandwidth in MiByte/s
system.mem_ctrls0.avgWrBWSys                    92.76                       # Average system write bandwidth in MiByte/s
system.mem_ctrls0.peakBW                     12800.00                       # Theoretical peak bandwidth in MiByte/s
system.mem_ctrls0.busUtil                        1.01                       # Data bus utilization in percentage
system.mem_ctrls0.busUtilRead                    0.42                       # Data bus utilization in percentage for reads
system.mem_ctrls0.busUtilWrite                   0.59                       # Data bus utilization in percentage for writes
system.mem_ctrls0.avgRdQLen                      1.00                       # Average read queue length when enqueuing
system.mem_ctrls0.avgWrQLen                     25.66                       # Average write queue length when enqueuing
system.mem_ctrls0.readRowHits                 1136793                       # Number of row buffer hits during reads
system.mem_ctrls0.writeRowHits                2126611                       # Number of row buffer hits during writes
system.mem_ctrls0.readRowHitRate                33.50                       # Row buffer hit rate for reads
system.mem_ctrls0.writeRowHitRate               44.72                       # Row buffer hit rate for writes
system.mem_ctrls0.avgGap                    344280.25                       # Average gap between requests
system.mem_ctrls0.pageHitRate                   40.05                       # Row buffer hit rate, read and write combined
system.mem_ctrls0_0.actEnergy             20610956520                       # Energy for activate commands per rank (pJ)
system.mem_ctrls0_0.preEnergy             11246057625                       # Energy for precharge commands per rank (pJ)
system.mem_ctrls0_0.readEnergy            14904786000                       # Energy for read commands per rank (pJ)
system.mem_ctrls0_0.writeEnergy           18166505040                       # Energy for write commands per rank (pJ)
system.mem_ctrls0_0.refreshEnergy        263576985360                       # Energy for refresh commands per rank (pJ)
system.mem_ctrls0_0.actBackEnergy        1724314321935                       # Energy for active background per rank (pJ)
system.mem_ctrls0_0.preBackEnergy        908722995000                       # Energy for precharge background per rank (pJ)
system.mem_ctrls0_0.totalEnergy          2961542607480                       # Total energy per rank (pJ)
system.mem_ctrls0_0.averagePower           733.878771                       # Core power per rank (mW)
system.mem_ctrls0_0.memoryStateTime::IDLE 1500214888754                       # Time in different power states
system.mem_ctrls0_0.memoryStateTime::REF 134565860000                       # Time in different power states
system.mem_ctrls0_0.memoryStateTime::PRE_PDN            0                       # Time in different power states
system.mem_ctrls0_0.memoryStateTime::ACT 2395080299246                       # Time in different power states
system.mem_ctrls0_0.memoryStateTime::ACT_PDN            0                       # Time in different power states
system.mem_ctrls0_1.actEnergy             16406832960                       # Energy for activate commands per rank (pJ)
system.mem_ctrls0_1.preEnergy              8952141000                       # Energy for precharge commands per rank (pJ)
system.mem_ctrls0_1.readEnergy            11646507600                       # Energy for read commands per rank (pJ)
system.mem_ctrls0_1.writeEnergy           12724264080                       # Energy for write commands per rank (pJ)
system.mem_ctrls0_1.refreshEnergy        263576985360                       # Energy for refresh commands per rank (pJ)
system.mem_ctrls0_1.actBackEnergy        1579301593785                       # Energy for active background per rank (pJ)
system.mem_ctrls0_1.preBackEnergy        1035927142500                       # Energy for precharge background per rank (pJ)
system.mem_ctrls0_1.totalEnergy          2928535467285                       # Total energy per rank (pJ)
system.mem_ctrls0_1.averagePower           725.699507                       # Core power per rank (mW)
system.mem_ctrls0_1.memoryStateTime::IDLE 1712464190501                       # Time in different power states
system.mem_ctrls0_1.memoryStateTime::REF 134565860000                       # Time in different power states
system.mem_ctrls0_1.memoryStateTime::PRE_PDN            0                       # Time in different power states
system.mem_ctrls0_1.memoryStateTime::ACT 2182829285749                       # Time in different power states
system.mem_ctrls0_1.memoryStateTime::ACT_PDN            0                       # Time in different power states
system.mem_ctrls1.bytes_read::ruby.dir_cntrl1    372967360                       # Number of bytes read from this memory
system.mem_ctrls1.bytes_read::total         372967360                       # Number of bytes read from this memory
system.mem_ctrls1.bytes_written::ruby.dir_cntrl1    371436224                       # Number of bytes written to this memory
system.mem_ctrls1.bytes_written::total      371436224                       # Number of bytes written to this memory
system.mem_ctrls1.num_reads::ruby.dir_cntrl1      5827615                       # Number of read requests responded to by this memory
system.mem_ctrls1.num_reads::total            5827615                       # Number of read requests responded to by this memory
system.mem_ctrls1.num_writes::ruby.dir_cntrl1      5803691                       # Number of write requests responded to by this memory
system.mem_ctrls1.num_writes::total           5803691                       # Number of write requests responded to by this memory
system.mem_ctrls1.bw_read::ruby.dir_cntrl1     92550831                       # Total read bandwidth from this memory (bytes/s)
system.mem_ctrls1.bw_read::total             92550831                       # Total read bandwidth from this memory (bytes/s)
system.mem_ctrls1.bw_write::ruby.dir_cntrl1     92170884                       # Write bandwidth from this memory (bytes/s)
system.mem_ctrls1.bw_write::total            92170884                       # Write bandwidth from this memory (bytes/s)
system.mem_ctrls1.bw_total::ruby.dir_cntrl1    184721714                       # Total bandwidth to/from this memory (bytes/s)
system.mem_ctrls1.bw_total::total           184721714                       # Total bandwidth to/from this memory (bytes/s)
system.mem_ctrls1.readReqs                    5827615                       # Number of read requests accepted
system.mem_ctrls1.writeReqs                   5803691                       # Number of write requests accepted
system.mem_ctrls1.readBursts                  5827615                       # Number of DRAM read bursts, including those serviced by the write queue
system.mem_ctrls1.writeBursts                 5803691                       # Number of DRAM write bursts, including those merged in the write queue
system.mem_ctrls1.bytesReadDRAM             204769344                       # Total number of bytes read from DRAM
system.mem_ctrls1.bytesReadWrQ              168198016                       # Total number of bytes read from write queue
system.mem_ctrls1.bytesWritten              288147328                       # Total number of bytes written to DRAM
system.mem_ctrls1.bytesReadSys              372967360                       # Total read bytes from the system interface side
system.mem_ctrls1.bytesWrittenSys           371436224                       # Total written bytes from the system interface side
system.mem_ctrls1.servicedByWrQ               2628094                       # Number of DRAM read bursts serviced by the write queue
system.mem_ctrls1.mergedWrBursts              1301392                       # Number of DRAM write bursts merged with an existing one
system.mem_ctrls1.neitherReadNorWriteReqs            0                       # Number of requests that are neither read nor write
system.mem_ctrls1.perBankRdBursts::0           391499                       # Per bank write bursts
system.mem_ctrls1.perBankRdBursts::1            98158                       # Per bank write bursts
system.mem_ctrls1.perBankRdBursts::2           111264                       # Per bank write bursts
system.mem_ctrls1.perBankRdBursts::3           340592                       # Per bank write bursts
system.mem_ctrls1.perBankRdBursts::4           277523                       # Per bank write bursts
system.mem_ctrls1.perBankRdBursts::5           159308                       # Per bank write bursts
system.mem_ctrls1.perBankRdBursts::6           256388                       # Per bank write bursts
system.mem_ctrls1.perBankRdBursts::7           178722                       # Per bank write bursts
system.mem_ctrls1.perBankRdBursts::8           181215                       # Per bank write bursts
system.mem_ctrls1.perBankRdBursts::9           193723                       # Per bank write bursts
system.mem_ctrls1.perBankRdBursts::10          299248                       # Per bank write bursts
system.mem_ctrls1.perBankRdBursts::11           94896                       # Per bank write bursts
system.mem_ctrls1.perBankRdBursts::12           69140                       # Per bank write bursts
system.mem_ctrls1.perBankRdBursts::13          134884                       # Per bank write bursts
system.mem_ctrls1.perBankRdBursts::14          174164                       # Per bank write bursts
system.mem_ctrls1.perBankRdBursts::15          238797                       # Per bank write bursts
system.mem_ctrls1.perBankWrBursts::0           781184                       # Per bank write bursts
system.mem_ctrls1.perBankWrBursts::1           116232                       # Per bank write bursts
system.mem_ctrls1.perBankWrBursts::2           144831                       # Per bank write bursts
system.mem_ctrls1.perBankWrBursts::3           478241                       # Per bank write bursts
system.mem_ctrls1.perBankWrBursts::4           377467                       # Per bank write bursts
system.mem_ctrls1.perBankWrBursts::5           201411                       # Per bank write bursts
system.mem_ctrls1.perBankWrBursts::6           351593                       # Per bank write bursts
system.mem_ctrls1.perBankWrBursts::7           212334                       # Per bank write bursts
system.mem_ctrls1.perBankWrBursts::8           222105                       # Per bank write bursts
system.mem_ctrls1.perBankWrBursts::9           262484                       # Per bank write bursts
system.mem_ctrls1.perBankWrBursts::10          390487                       # Per bank write bursts
system.mem_ctrls1.perBankWrBursts::11          126707                       # Per bank write bursts
system.mem_ctrls1.perBankWrBursts::12           82056                       # Per bank write bursts
system.mem_ctrls1.perBankWrBursts::13          186680                       # Per bank write bursts
system.mem_ctrls1.perBankWrBursts::14          223321                       # Per bank write bursts
system.mem_ctrls1.perBankWrBursts::15          345169                       # Per bank write bursts
system.mem_ctrls1.numRdRetry                        0                       # Number of times read queue was full causing retry
system.mem_ctrls1.numWrRetry                        0                       # Number of times write queue was full causing retry
system.mem_ctrls1.totGap                 4029866120500                       # Total gap between requests
system.mem_ctrls1.readPktSize::0                    0                       # Read request sizes (log2)
system.mem_ctrls1.readPktSize::1                    0                       # Read request sizes (log2)
system.mem_ctrls1.readPktSize::2                    0                       # Read request sizes (log2)
system.mem_ctrls1.readPktSize::3                    0                       # Read request sizes (log2)
system.mem_ctrls1.readPktSize::4                    0                       # Read request sizes (log2)
system.mem_ctrls1.readPktSize::5                    0                       # Read request sizes (log2)
system.mem_ctrls1.readPktSize::6              5827615                       # Read request sizes (log2)
system.mem_ctrls1.writePktSize::0                   0                       # Write request sizes (log2)
system.mem_ctrls1.writePktSize::1                   0                       # Write request sizes (log2)
system.mem_ctrls1.writePktSize::2                   0                       # Write request sizes (log2)
system.mem_ctrls1.writePktSize::3                   0                       # Write request sizes (log2)
system.mem_ctrls1.writePktSize::4                   0                       # Write request sizes (log2)
system.mem_ctrls1.writePktSize::5                   0                       # Write request sizes (log2)
system.mem_ctrls1.writePktSize::6             5803691                       # Write request sizes (log2)
system.mem_ctrls1.rdQLenPdf::0                3195387                       # What read queue length does an incoming req see
system.mem_ctrls1.rdQLenPdf::1                   4104                       # What read queue length does an incoming req see
system.mem_ctrls1.rdQLenPdf::2                     30                       # What read queue length does an incoming req see
system.mem_ctrls1.rdQLenPdf::3                      0                       # What read queue length does an incoming req see
system.mem_ctrls1.rdQLenPdf::4                      0                       # What read queue length does an incoming req see
system.mem_ctrls1.rdQLenPdf::5                      0                       # What read queue length does an incoming req see
system.mem_ctrls1.rdQLenPdf::6                      0                       # What read queue length does an incoming req see
system.mem_ctrls1.rdQLenPdf::7                      0                       # What read queue length does an incoming req see
system.mem_ctrls1.rdQLenPdf::8                      0                       # What read queue length does an incoming req see
system.mem_ctrls1.rdQLenPdf::9                      0                       # What read queue length does an incoming req see
system.mem_ctrls1.rdQLenPdf::10                     0                       # What read queue length does an incoming req see
system.mem_ctrls1.rdQLenPdf::11                     0                       # What read queue length does an incoming req see
system.mem_ctrls1.rdQLenPdf::12                     0                       # What read queue length does an incoming req see
system.mem_ctrls1.rdQLenPdf::13                     0                       # What read queue length does an incoming req see
system.mem_ctrls1.rdQLenPdf::14                     0                       # What read queue length does an incoming req see
system.mem_ctrls1.rdQLenPdf::15                     0                       # What read queue length does an incoming req see
system.mem_ctrls1.rdQLenPdf::16                     0                       # What read queue length does an incoming req see
system.mem_ctrls1.rdQLenPdf::17                     0                       # What read queue length does an incoming req see
system.mem_ctrls1.rdQLenPdf::18                     0                       # What read queue length does an incoming req see
system.mem_ctrls1.rdQLenPdf::19                     0                       # What read queue length does an incoming req see
system.mem_ctrls1.rdQLenPdf::20                     0                       # What read queue length does an incoming req see
system.mem_ctrls1.rdQLenPdf::21                     0                       # What read queue length does an incoming req see
system.mem_ctrls1.rdQLenPdf::22                     0                       # What read queue length does an incoming req see
system.mem_ctrls1.rdQLenPdf::23                     0                       # What read queue length does an incoming req see
system.mem_ctrls1.rdQLenPdf::24                     0                       # What read queue length does an incoming req see
system.mem_ctrls1.rdQLenPdf::25                     0                       # What read queue length does an incoming req see
system.mem_ctrls1.rdQLenPdf::26                     0                       # What read queue length does an incoming req see
system.mem_ctrls1.rdQLenPdf::27                     0                       # What read queue length does an incoming req see
system.mem_ctrls1.rdQLenPdf::28                     0                       # What read queue length does an incoming req see
system.mem_ctrls1.rdQLenPdf::29                     0                       # What read queue length does an incoming req see
system.mem_ctrls1.rdQLenPdf::30                     0                       # What read queue length does an incoming req see
system.mem_ctrls1.rdQLenPdf::31                     0                       # What read queue length does an incoming req see
system.mem_ctrls1.wrQLenPdf::0                      0                       # What write queue length does an incoming req see
system.mem_ctrls1.wrQLenPdf::1                      0                       # What write queue length does an incoming req see
system.mem_ctrls1.wrQLenPdf::2                      0                       # What write queue length does an incoming req see
system.mem_ctrls1.wrQLenPdf::3                      0                       # What write queue length does an incoming req see
system.mem_ctrls1.wrQLenPdf::4                      0                       # What write queue length does an incoming req see
system.mem_ctrls1.wrQLenPdf::5                      0                       # What write queue length does an incoming req see
system.mem_ctrls1.wrQLenPdf::6                      0                       # What write queue length does an incoming req see
system.mem_ctrls1.wrQLenPdf::7                      0                       # What write queue length does an incoming req see
system.mem_ctrls1.wrQLenPdf::8                      0                       # What write queue length does an incoming req see
system.mem_ctrls1.wrQLenPdf::9                      0                       # What write queue length does an incoming req see
system.mem_ctrls1.wrQLenPdf::10                     0                       # What write queue length does an incoming req see
system.mem_ctrls1.wrQLenPdf::11                     0                       # What write queue length does an incoming req see
system.mem_ctrls1.wrQLenPdf::12                     0                       # What write queue length does an incoming req see
system.mem_ctrls1.wrQLenPdf::13                     0                       # What write queue length does an incoming req see
system.mem_ctrls1.wrQLenPdf::14                     0                       # What write queue length does an incoming req see
system.mem_ctrls1.wrQLenPdf::15                 94285                       # What write queue length does an incoming req see
system.mem_ctrls1.wrQLenPdf::16                 95181                       # What write queue length does an incoming req see
system.mem_ctrls1.wrQLenPdf::17                265561                       # What write queue length does an incoming req see
system.mem_ctrls1.wrQLenPdf::18                269914                       # What write queue length does an incoming req see
system.mem_ctrls1.wrQLenPdf::19                270007                       # What write queue length does an incoming req see
system.mem_ctrls1.wrQLenPdf::20                270084                       # What write queue length does an incoming req see
system.mem_ctrls1.wrQLenPdf::21                270243                       # What write queue length does an incoming req see
system.mem_ctrls1.wrQLenPdf::22                270413                       # What write queue length does an incoming req see
system.mem_ctrls1.wrQLenPdf::23                270295                       # What write queue length does an incoming req see
system.mem_ctrls1.wrQLenPdf::24                270263                       # What write queue length does an incoming req see
system.mem_ctrls1.wrQLenPdf::25                270321                       # What write queue length does an incoming req see
system.mem_ctrls1.wrQLenPdf::26                269692                       # What write queue length does an incoming req see
system.mem_ctrls1.wrQLenPdf::27                269294                       # What write queue length does an incoming req see
system.mem_ctrls1.wrQLenPdf::28                269287                       # What write queue length does an incoming req see
system.mem_ctrls1.wrQLenPdf::29                269270                       # What write queue length does an incoming req see
system.mem_ctrls1.wrQLenPdf::30                269259                       # What write queue length does an incoming req see
system.mem_ctrls1.wrQLenPdf::31                269253                       # What write queue length does an incoming req see
system.mem_ctrls1.wrQLenPdf::32                269251                       # What write queue length does an incoming req see
system.mem_ctrls1.wrQLenPdf::33                   385                       # What write queue length does an incoming req see
system.mem_ctrls1.wrQLenPdf::34                    38                       # What write queue length does an incoming req see
system.mem_ctrls1.wrQLenPdf::35                     3                       # What write queue length does an incoming req see
system.mem_ctrls1.wrQLenPdf::36                     0                       # What write queue length does an incoming req see
system.mem_ctrls1.wrQLenPdf::37                     0                       # What write queue length does an incoming req see
system.mem_ctrls1.wrQLenPdf::38                     0                       # What write queue length does an incoming req see
system.mem_ctrls1.wrQLenPdf::39                     0                       # What write queue length does an incoming req see
system.mem_ctrls1.wrQLenPdf::40                     0                       # What write queue length does an incoming req see
system.mem_ctrls1.wrQLenPdf::41                     0                       # What write queue length does an incoming req see
system.mem_ctrls1.wrQLenPdf::42                     0                       # What write queue length does an incoming req see
system.mem_ctrls1.wrQLenPdf::43                     0                       # What write queue length does an incoming req see
system.mem_ctrls1.wrQLenPdf::44                     0                       # What write queue length does an incoming req see
system.mem_ctrls1.wrQLenPdf::45                     0                       # What write queue length does an incoming req see
system.mem_ctrls1.wrQLenPdf::46                     0                       # What write queue length does an incoming req see
system.mem_ctrls1.wrQLenPdf::47                     0                       # What write queue length does an incoming req see
system.mem_ctrls1.wrQLenPdf::48                     0                       # What write queue length does an incoming req see
system.mem_ctrls1.wrQLenPdf::49                     0                       # What write queue length does an incoming req see
system.mem_ctrls1.wrQLenPdf::50                     0                       # What write queue length does an incoming req see
system.mem_ctrls1.wrQLenPdf::51                     0                       # What write queue length does an incoming req see
system.mem_ctrls1.wrQLenPdf::52                     0                       # What write queue length does an incoming req see
system.mem_ctrls1.wrQLenPdf::53                     0                       # What write queue length does an incoming req see
system.mem_ctrls1.wrQLenPdf::54                     0                       # What write queue length does an incoming req see
system.mem_ctrls1.wrQLenPdf::55                     0                       # What write queue length does an incoming req see
system.mem_ctrls1.wrQLenPdf::56                     0                       # What write queue length does an incoming req see
system.mem_ctrls1.wrQLenPdf::57                     0                       # What write queue length does an incoming req see
system.mem_ctrls1.wrQLenPdf::58                     0                       # What write queue length does an incoming req see
system.mem_ctrls1.wrQLenPdf::59                     0                       # What write queue length does an incoming req see
system.mem_ctrls1.wrQLenPdf::60                     0                       # What write queue length does an incoming req see
system.mem_ctrls1.wrQLenPdf::61                     0                       # What write queue length does an incoming req see
system.mem_ctrls1.wrQLenPdf::62                     0                       # What write queue length does an incoming req see
system.mem_ctrls1.wrQLenPdf::63                     0                       # What write queue length does an incoming req see
system.mem_ctrls1.bytesPerActivate::samples      4648461                       # Bytes accessed per row activation
system.mem_ctrls1.bytesPerActivate::mean   106.038529                       # Bytes accessed per row activation
system.mem_ctrls1.bytesPerActivate::gmean    91.295330                       # Bytes accessed per row activation
system.mem_ctrls1.bytesPerActivate::stdev    71.659560                       # Bytes accessed per row activation
system.mem_ctrls1.bytesPerActivate::0-127      2891891     62.21%     62.21% # Bytes accessed per row activation
system.mem_ctrls1.bytesPerActivate::128-255      1440363     30.99%     93.20% # Bytes accessed per row activation
system.mem_ctrls1.bytesPerActivate::256-383       253986      5.46%     98.66% # Bytes accessed per row activation
system.mem_ctrls1.bytesPerActivate::384-511        50148      1.08%     99.74% # Bytes accessed per row activation
system.mem_ctrls1.bytesPerActivate::512-639         8810      0.19%     99.93% # Bytes accessed per row activation
system.mem_ctrls1.bytesPerActivate::640-767         1646      0.04%     99.97% # Bytes accessed per row activation
system.mem_ctrls1.bytesPerActivate::768-895          434      0.01%     99.97% # Bytes accessed per row activation
system.mem_ctrls1.bytesPerActivate::896-1023          222      0.00%     99.98% # Bytes accessed per row activation
system.mem_ctrls1.bytesPerActivate::1024-1151          961      0.02%    100.00% # Bytes accessed per row activation
system.mem_ctrls1.bytesPerActivate::total      4648461                       # Bytes accessed per row activation
system.mem_ctrls1.rdPerTurnAround::samples       269250                       # Reads before turning the bus around for writes
system.mem_ctrls1.rdPerTurnAround::mean     11.883090                       # Reads before turning the bus around for writes
system.mem_ctrls1.rdPerTurnAround::stdev     4.388243                       # Reads before turning the bus around for writes
system.mem_ctrls1.rdPerTurnAround::0-15        241675     89.76%     89.76% # Reads before turning the bus around for writes
system.mem_ctrls1.rdPerTurnAround::16-31        27037     10.04%     99.80% # Reads before turning the bus around for writes
system.mem_ctrls1.rdPerTurnAround::32-47          334      0.12%     99.92% # Reads before turning the bus around for writes
system.mem_ctrls1.rdPerTurnAround::48-63           65      0.02%     99.95% # Reads before turning the bus around for writes
system.mem_ctrls1.rdPerTurnAround::64-79           37      0.01%     99.96% # Reads before turning the bus around for writes
system.mem_ctrls1.rdPerTurnAround::80-95           25      0.01%     99.97% # Reads before turning the bus around for writes
system.mem_ctrls1.rdPerTurnAround::96-111           13      0.00%     99.98% # Reads before turning the bus around for writes
system.mem_ctrls1.rdPerTurnAround::112-127           10      0.00%     99.98% # Reads before turning the bus around for writes
system.mem_ctrls1.rdPerTurnAround::128-143           11      0.00%     99.98% # Reads before turning the bus around for writes
system.mem_ctrls1.rdPerTurnAround::144-159            8      0.00%     99.99% # Reads before turning the bus around for writes
system.mem_ctrls1.rdPerTurnAround::160-175            3      0.00%     99.99% # Reads before turning the bus around for writes
system.mem_ctrls1.rdPerTurnAround::176-191           10      0.00%     99.99% # Reads before turning the bus around for writes
system.mem_ctrls1.rdPerTurnAround::192-207            4      0.00%     99.99% # Reads before turning the bus around for writes
system.mem_ctrls1.rdPerTurnAround::208-223            4      0.00%     99.99% # Reads before turning the bus around for writes
system.mem_ctrls1.rdPerTurnAround::224-239            3      0.00%    100.00% # Reads before turning the bus around for writes
system.mem_ctrls1.rdPerTurnAround::240-255            2      0.00%    100.00% # Reads before turning the bus around for writes
system.mem_ctrls1.rdPerTurnAround::256-271            2      0.00%    100.00% # Reads before turning the bus around for writes
system.mem_ctrls1.rdPerTurnAround::272-287            3      0.00%    100.00% # Reads before turning the bus around for writes
system.mem_ctrls1.rdPerTurnAround::288-303            2      0.00%    100.00% # Reads before turning the bus around for writes
system.mem_ctrls1.rdPerTurnAround::304-319            1      0.00%    100.00% # Reads before turning the bus around for writes
system.mem_ctrls1.rdPerTurnAround::320-335            1      0.00%    100.00% # Reads before turning the bus around for writes
system.mem_ctrls1.rdPerTurnAround::total       269250                       # Reads before turning the bus around for writes
system.mem_ctrls1.wrPerTurnAround::samples       269250                       # Writes before turning the bus around for reads
system.mem_ctrls1.wrPerTurnAround::mean     16.721642                       # Writes before turning the bus around for reads
system.mem_ctrls1.wrPerTurnAround::gmean    16.693292                       # Writes before turning the bus around for reads
system.mem_ctrls1.wrPerTurnAround::stdev     0.986291                       # Writes before turning the bus around for reads
system.mem_ctrls1.wrPerTurnAround::16          174147     64.68%     64.68% # Writes before turning the bus around for reads
system.mem_ctrls1.wrPerTurnAround::17             468      0.17%     64.85% # Writes before turning the bus around for reads
system.mem_ctrls1.wrPerTurnAround::18           90215     33.51%     98.36% # Writes before turning the bus around for reads
system.mem_ctrls1.wrPerTurnAround::19            4285      1.59%     99.95% # Writes before turning the bus around for reads
system.mem_ctrls1.wrPerTurnAround::20             126      0.05%    100.00% # Writes before turning the bus around for reads
system.mem_ctrls1.wrPerTurnAround::21               9      0.00%    100.00% # Writes before turning the bus around for reads
system.mem_ctrls1.wrPerTurnAround::total       269250                       # Writes before turning the bus around for reads
system.mem_ctrls1.totQLat                 62749813964                       # Total ticks spent queuing
system.mem_ctrls1.totMemAccLat           122740832714                       # Total ticks spent from burst creation until serviced by the DRAM
system.mem_ctrls1.totBusLat               15997605000                       # Total ticks spent in databus transfers
system.mem_ctrls1.avgQLat                    19612.25                       # Average queueing delay per DRAM burst
system.mem_ctrls1.avgBusLat                   5000.00                       # Average bus latency per DRAM burst
system.mem_ctrls1.avgMemAccLat               38362.25                       # Average memory access latency per DRAM burst
system.mem_ctrls1.avgRdBW                       50.81                       # Average DRAM read bandwidth in MiByte/s
system.mem_ctrls1.avgWrBW                       71.50                       # Average achieved write bandwidth in MiByte/s
system.mem_ctrls1.avgRdBWSys                    92.55                       # Average system read bandwidth in MiByte/s
system.mem_ctrls1.avgWrBWSys                    92.17                       # Average system write bandwidth in MiByte/s
system.mem_ctrls1.peakBW                     12800.00                       # Theoretical peak bandwidth in MiByte/s
system.mem_ctrls1.busUtil                        0.96                       # Data bus utilization in percentage
system.mem_ctrls1.busUtilRead                    0.40                       # Data bus utilization in percentage for reads
system.mem_ctrls1.busUtilWrite                   0.56                       # Data bus utilization in percentage for writes
system.mem_ctrls1.avgRdQLen                      1.00                       # Average read queue length when enqueuing
system.mem_ctrls1.avgWrQLen                     25.70                       # Average write queue length when enqueuing
system.mem_ctrls1.readRowHits                 1036122                       # Number of row buffer hits during reads
system.mem_ctrls1.writeRowHits                2017234                       # Number of row buffer hits during writes
system.mem_ctrls1.readRowHitRate                32.38                       # Row buffer hit rate for reads
system.mem_ctrls1.writeRowHitRate               44.80                       # Row buffer hit rate for writes
system.mem_ctrls1.avgGap                    346467.21                       # Average gap between requests
system.mem_ctrls1.pageHitRate                   39.64                       # Row buffer hit rate, read and write combined
system.mem_ctrls1_0.actEnergy             19728946440                       # Energy for activate commands per rank (pJ)
system.mem_ctrls1_0.preEnergy             10764802125                       # Energy for precharge commands per rank (pJ)
system.mem_ctrls1_0.readEnergy            14193410400                       # Energy for read commands per rank (pJ)
system.mem_ctrls1_0.writeEnergy           17298820080                       # Energy for write commands per rank (pJ)
system.mem_ctrls1_0.refreshEnergy        263576985360                       # Energy for refresh commands per rank (pJ)
system.mem_ctrls1_0.actBackEnergy        1711583004285                       # Energy for active background per rank (pJ)
system.mem_ctrls1_0.preBackEnergy        919890817500                       # Energy for precharge background per rank (pJ)
system.mem_ctrls1_0.totalEnergy          2957036786190                       # Total energy per rank (pJ)
system.mem_ctrls1_0.averagePower           732.762216                       # Core power per rank (mW)
system.mem_ctrls1_0.memoryStateTime::IDLE 1518951681750                       # Time in different power states
system.mem_ctrls1_0.memoryStateTime::REF 134565860000                       # Time in different power states
system.mem_ctrls1_0.memoryStateTime::PRE_PDN            0                       # Time in different power states
system.mem_ctrls1_0.memoryStateTime::ACT 2376341794500                       # Time in different power states
system.mem_ctrls1_0.memoryStateTime::ACT_PDN            0                       # Time in different power states
system.mem_ctrls1_1.actEnergy             15498090720                       # Energy for activate commands per rank (pJ)
system.mem_ctrls1_1.preEnergy              8456299500                       # Energy for precharge commands per rank (pJ)
system.mem_ctrls1_1.readEnergy            10850096400                       # Energy for read commands per rank (pJ)
system.mem_ctrls1_1.writeEnergy           11950066080                       # Energy for write commands per rank (pJ)
system.mem_ctrls1_1.refreshEnergy        263576985360                       # Energy for refresh commands per rank (pJ)
system.mem_ctrls1_1.actBackEnergy        1527817841460                       # Energy for active background per rank (pJ)
system.mem_ctrls1_1.preBackEnergy        1081088349000                       # Energy for precharge background per rank (pJ)
system.mem_ctrls1_1.totalEnergy          2919237728520                       # Total energy per rank (pJ)
system.mem_ctrls1_1.averagePower           723.395495                       # Core power per rank (mW)
system.mem_ctrls1_1.memoryStateTime::IDLE 1787827232500                       # Time in different power states
system.mem_ctrls1_1.memoryStateTime::REF 134565860000                       # Time in different power states
system.mem_ctrls1_1.memoryStateTime::PRE_PDN            0                       # Time in different power states
system.mem_ctrls1_1.memoryStateTime::ACT 2107466354250                       # Time in different power states
system.mem_ctrls1_1.memoryStateTime::ACT_PDN            0                       # Time in different power states
system.mem_ctrls2.bytes_read::ruby.dir_cntrl2    436945920                       # Number of bytes read from this memory
system.mem_ctrls2.bytes_read::total         436945920                       # Number of bytes read from this memory
system.mem_ctrls2.bytes_written::ruby.dir_cntrl2    435422336                       # Number of bytes written to this memory
system.mem_ctrls2.bytes_written::total      435422336                       # Number of bytes written to this memory
system.mem_ctrls2.num_reads::ruby.dir_cntrl2      6827280                       # Number of read requests responded to by this memory
system.mem_ctrls2.num_reads::total            6827280                       # Number of read requests responded to by this memory
system.mem_ctrls2.num_writes::ruby.dir_cntrl2      6803474                       # Number of write requests responded to by this memory
system.mem_ctrls2.num_writes::total           6803474                       # Number of write requests responded to by this memory
system.mem_ctrls2.bw_read::ruby.dir_cntrl2    108426936                       # Total read bandwidth from this memory (bytes/s)
system.mem_ctrls2.bw_read::total            108426936                       # Total read bandwidth from this memory (bytes/s)
system.mem_ctrls2.bw_write::ruby.dir_cntrl2    108048862                       # Write bandwidth from this memory (bytes/s)
system.mem_ctrls2.bw_write::total           108048862                       # Write bandwidth from this memory (bytes/s)
system.mem_ctrls2.bw_total::ruby.dir_cntrl2    216475798                       # Total bandwidth to/from this memory (bytes/s)
system.mem_ctrls2.bw_total::total           216475798                       # Total bandwidth to/from this memory (bytes/s)
system.mem_ctrls2.readReqs                    6827280                       # Number of read requests accepted
system.mem_ctrls2.writeReqs                   6803474                       # Number of write requests accepted
system.mem_ctrls2.readBursts                  6827280                       # Number of DRAM read bursts, including those serviced by the write queue
system.mem_ctrls2.writeBursts                 6803474                       # Number of DRAM write bursts, including those merged in the write queue
system.mem_ctrls2.bytesReadDRAM             244047616                       # Total number of bytes read from DRAM
system.mem_ctrls2.bytesReadWrQ              192898304                       # Total number of bytes read from write queue
system.mem_ctrls2.bytesWritten              333596928                       # Total number of bytes written to DRAM
system.mem_ctrls2.bytesReadSys              436945920                       # Total read bytes from the system interface side
system.mem_ctrls2.bytesWrittenSys           435422336                       # Total written bytes from the system interface side
system.mem_ctrls2.servicedByWrQ               3014036                       # Number of DRAM read bursts serviced by the write queue
system.mem_ctrls2.mergedWrBursts              1591018                       # Number of DRAM write bursts merged with an existing one
system.mem_ctrls2.neitherReadNorWriteReqs            0                       # Number of requests that are neither read nor write
system.mem_ctrls2.perBankRdBursts::0           472979                       # Per bank write bursts
system.mem_ctrls2.perBankRdBursts::1           164106                       # Per bank write bursts
system.mem_ctrls2.perBankRdBursts::2           184890                       # Per bank write bursts
system.mem_ctrls2.perBankRdBursts::3           479660                       # Per bank write bursts
system.mem_ctrls2.perBankRdBursts::4           324427                       # Per bank write bursts
system.mem_ctrls2.perBankRdBursts::5           162964                       # Per bank write bursts
system.mem_ctrls2.perBankRdBursts::6           296433                       # Per bank write bursts
system.mem_ctrls2.perBankRdBursts::7           226236                       # Per bank write bursts
system.mem_ctrls2.perBankRdBursts::8           207660                       # Per bank write bursts
system.mem_ctrls2.perBankRdBursts::9           203823                       # Per bank write bursts
system.mem_ctrls2.perBankRdBursts::10          311249                       # Per bank write bursts
system.mem_ctrls2.perBankRdBursts::11           96469                       # Per bank write bursts
system.mem_ctrls2.perBankRdBursts::12           69084                       # Per bank write bursts
system.mem_ctrls2.perBankRdBursts::13          209019                       # Per bank write bursts
system.mem_ctrls2.perBankRdBursts::14          228391                       # Per bank write bursts
system.mem_ctrls2.perBankRdBursts::15          175854                       # Per bank write bursts
system.mem_ctrls2.perBankWrBursts::0           826691                       # Per bank write bursts
system.mem_ctrls2.perBankWrBursts::1           189045                       # Per bank write bursts
system.mem_ctrls2.perBankWrBursts::2           228452                       # Per bank write bursts
system.mem_ctrls2.perBankWrBursts::3           709707                       # Per bank write bursts
system.mem_ctrls2.perBankWrBursts::4           427195                       # Per bank write bursts
system.mem_ctrls2.perBankWrBursts::5           203864                       # Per bank write bursts
system.mem_ctrls2.perBankWrBursts::6           424237                       # Per bank write bursts
system.mem_ctrls2.perBankWrBursts::7           264393                       # Per bank write bursts
system.mem_ctrls2.perBankWrBursts::8           267114                       # Per bank write bursts
system.mem_ctrls2.perBankWrBursts::9           266876                       # Per bank write bursts
system.mem_ctrls2.perBankWrBursts::10          372744                       # Per bank write bursts
system.mem_ctrls2.perBankWrBursts::11          126546                       # Per bank write bursts
system.mem_ctrls2.perBankWrBursts::12           85598                       # Per bank write bursts
system.mem_ctrls2.perBankWrBursts::13          267366                       # Per bank write bursts
system.mem_ctrls2.perBankWrBursts::14          284354                       # Per bank write bursts
system.mem_ctrls2.perBankWrBursts::15          268270                       # Per bank write bursts
system.mem_ctrls2.numRdRetry                        0                       # Number of times read queue was full causing retry
system.mem_ctrls2.numWrRetry                        0                       # Number of times write queue was full causing retry
system.mem_ctrls2.totGap                 4029865001500                       # Total gap between requests
system.mem_ctrls2.readPktSize::0                    0                       # Read request sizes (log2)
system.mem_ctrls2.readPktSize::1                    0                       # Read request sizes (log2)
system.mem_ctrls2.readPktSize::2                    0                       # Read request sizes (log2)
system.mem_ctrls2.readPktSize::3                    0                       # Read request sizes (log2)
system.mem_ctrls2.readPktSize::4                    0                       # Read request sizes (log2)
system.mem_ctrls2.readPktSize::5                    0                       # Read request sizes (log2)
system.mem_ctrls2.readPktSize::6              6827280                       # Read request sizes (log2)
system.mem_ctrls2.writePktSize::0                   0                       # Write request sizes (log2)
system.mem_ctrls2.writePktSize::1                   0                       # Write request sizes (log2)
system.mem_ctrls2.writePktSize::2                   0                       # Write request sizes (log2)
system.mem_ctrls2.writePktSize::3                   0                       # Write request sizes (log2)
system.mem_ctrls2.writePktSize::4                   0                       # Write request sizes (log2)
system.mem_ctrls2.writePktSize::5                   0                       # Write request sizes (log2)
system.mem_ctrls2.writePktSize::6             6803474                       # Write request sizes (log2)
system.mem_ctrls2.rdQLenPdf::0                3807612                       # What read queue length does an incoming req see
system.mem_ctrls2.rdQLenPdf::1                   5578                       # What read queue length does an incoming req see
system.mem_ctrls2.rdQLenPdf::2                     54                       # What read queue length does an incoming req see
system.mem_ctrls2.rdQLenPdf::3                      0                       # What read queue length does an incoming req see
system.mem_ctrls2.rdQLenPdf::4                      0                       # What read queue length does an incoming req see
system.mem_ctrls2.rdQLenPdf::5                      0                       # What read queue length does an incoming req see
system.mem_ctrls2.rdQLenPdf::6                      0                       # What read queue length does an incoming req see
system.mem_ctrls2.rdQLenPdf::7                      0                       # What read queue length does an incoming req see
system.mem_ctrls2.rdQLenPdf::8                      0                       # What read queue length does an incoming req see
system.mem_ctrls2.rdQLenPdf::9                      0                       # What read queue length does an incoming req see
system.mem_ctrls2.rdQLenPdf::10                     0                       # What read queue length does an incoming req see
system.mem_ctrls2.rdQLenPdf::11                     0                       # What read queue length does an incoming req see
system.mem_ctrls2.rdQLenPdf::12                     0                       # What read queue length does an incoming req see
system.mem_ctrls2.rdQLenPdf::13                     0                       # What read queue length does an incoming req see
system.mem_ctrls2.rdQLenPdf::14                     0                       # What read queue length does an incoming req see
system.mem_ctrls2.rdQLenPdf::15                     0                       # What read queue length does an incoming req see
system.mem_ctrls2.rdQLenPdf::16                     0                       # What read queue length does an incoming req see
system.mem_ctrls2.rdQLenPdf::17                     0                       # What read queue length does an incoming req see
system.mem_ctrls2.rdQLenPdf::18                     0                       # What read queue length does an incoming req see
system.mem_ctrls2.rdQLenPdf::19                     0                       # What read queue length does an incoming req see
system.mem_ctrls2.rdQLenPdf::20                     0                       # What read queue length does an incoming req see
system.mem_ctrls2.rdQLenPdf::21                     0                       # What read queue length does an incoming req see
system.mem_ctrls2.rdQLenPdf::22                     0                       # What read queue length does an incoming req see
system.mem_ctrls2.rdQLenPdf::23                     0                       # What read queue length does an incoming req see
system.mem_ctrls2.rdQLenPdf::24                     0                       # What read queue length does an incoming req see
system.mem_ctrls2.rdQLenPdf::25                     0                       # What read queue length does an incoming req see
system.mem_ctrls2.rdQLenPdf::26                     0                       # What read queue length does an incoming req see
system.mem_ctrls2.rdQLenPdf::27                     0                       # What read queue length does an incoming req see
system.mem_ctrls2.rdQLenPdf::28                     0                       # What read queue length does an incoming req see
system.mem_ctrls2.rdQLenPdf::29                     0                       # What read queue length does an incoming req see
system.mem_ctrls2.rdQLenPdf::30                     0                       # What read queue length does an incoming req see
system.mem_ctrls2.rdQLenPdf::31                     0                       # What read queue length does an incoming req see
system.mem_ctrls2.wrQLenPdf::0                      0                       # What write queue length does an incoming req see
system.mem_ctrls2.wrQLenPdf::1                      0                       # What write queue length does an incoming req see
system.mem_ctrls2.wrQLenPdf::2                      0                       # What write queue length does an incoming req see
system.mem_ctrls2.wrQLenPdf::3                      0                       # What write queue length does an incoming req see
[...]
system.ruby.RMW_Read.L1Cache.miss_type_mach_latency_hist_seqr::max_bucket           79                      
system.ruby.RMW_Read.L1Cache.miss_type_mach_latency_hist_seqr::samples         3318                      
system.ruby.RMW_Read.L1Cache.miss_type_mach_latency_hist_seqr::mean    45.409584                      
system.ruby.RMW_Read.L1Cache.miss_type_mach_latency_hist_seqr::gmean    45.391401                      
system.ruby.RMW_Read.L1Cache.miss_type_mach_latency_hist_seqr::stdev     1.336437                      
system.ruby.RMW_Read.L1Cache.miss_type_mach_latency_hist_seqr |           0      0.00%      0.00% |           0      0.00%      0.00% |           0      0.00%      0.00% |           0      0.00%      0.00% |           0      0.00%      0.00% |        3032     91.38%     91.38% |         282      8.50%     99.88% |           4      0.12%    100.00% |           0      0.00%    100.00% |           0      0.00%    100.00%
system.ruby.RMW_Read.L1Cache.miss_type_mach_latency_hist_seqr::total         3318                      
system.ruby.RMW_Read.Directory.miss_type_mach_latency_hist_seqr::bucket_size          128                      
system.ruby.RMW_Read.Directory.miss_type_mach_latency_hist_seqr::max_bucket         1279                      
system.ruby.RMW_Read.Directory.miss_type_mach_latency_hist_seqr::samples        27477                      
system.ruby.RMW_Read.Directory.miss_type_mach_latency_hist_seqr::mean   134.876042                      
system.ruby.RMW_Read.Directory.miss_type_mach_latency_hist_seqr::gmean   122.534206                      
system.ruby.RMW_Read.Directory.miss_type_mach_latency_hist_seqr::stdev    76.445612                      
system.ruby.RMW_Read.Directory.miss_type_mach_latency_hist_seqr |       21947     79.87%     79.87% |        3627     13.20%     93.07% |        1404      5.11%     98.18% |         204      0.74%     98.93% |         216      0.79%     99.71% |          70      0.25%     99.97% |           2      0.01%     99.97% |           5      0.02%     99.99% |           2      0.01%    100.00% |           0      0.00%    100.00%
system.ruby.RMW_Read.Directory.miss_type_mach_latency_hist_seqr::total        27477                      
system.ruby.Locked_RMW_Read.L1Cache.miss_type_mach_latency_hist_seqr::bucket_size            8                      
system.ruby.Locked_RMW_Read.L1Cache.miss_type_mach_latency_hist_seqr::max_bucket           79                      
system.ruby.Locked_RMW_Read.L1Cache.miss_type_mach_latency_hist_seqr::samples         8534                      
system.ruby.Locked_RMW_Read.L1Cache.miss_type_mach_latency_hist_seqr::mean    45.508906                      
system.ruby.Locked_RMW_Read.L1Cache.miss_type_mach_latency_hist_seqr::gmean    45.490025                      
system.ruby.Locked_RMW_Read.L1Cache.miss_type_mach_latency_hist_seqr::stdev     1.340480                      
system.ruby.Locked_RMW_Read.L1Cache.miss_type_mach_latency_hist_seqr |           0      0.00%      0.00% |           0      0.00%      0.00% |           0      0.00%      0.00% |           0      0.00%      0.00% |           0      0.00%      0.00% |        7477     87.61%     87.61% |        1057     12.39%    100.00% |           0      0.00%    100.00% |           0      0.00%    100.00% |           0      0.00%    100.00%
system.ruby.Locked_RMW_Read.L1Cache.miss_type_mach_latency_hist_seqr::total         8534                      
system.ruby.Locked_RMW_Read.Directory.miss_type_mach_latency_hist_seqr::bucket_size          128                      
system.ruby.Locked_RMW_Read.Directory.miss_type_mach_latency_hist_seqr::max_bucket         1279                      
system.ruby.Locked_RMW_Read.Directory.miss_type_mach_latency_hist_seqr::samples        13321                      
system.ruby.Locked_RMW_Read.Directory.miss_type_mach_latency_hist_seqr::mean   135.783124                      
system.ruby.Locked_RMW_Read.Directory.miss_type_mach_latency_hist_seqr::gmean   124.292540                      
system.ruby.Locked_RMW_Read.Directory.miss_type_mach_latency_hist_seqr::stdev    70.191433                      
system.ruby.Locked_RMW_Read.Directory.miss_type_mach_latency_hist_seqr |        9692     72.76%     72.76% |        2955     22.18%     94.94% |         453      3.40%     98.34% |          88      0.66%     99.00% |          94      0.71%     99.71% |          38      0.29%     99.99% |           0      0.00%     99.99% |           1      0.01%    100.00% |           0      0.00%    100.00% |           0      0.00%    100.00%
system.ruby.Locked_RMW_Read.Directory.miss_type_mach_latency_hist_seqr::total        13321                      
system.ruby.Directory_Controller.GETX    |     6125699     23.83%     23.83% |     6095373     23.71%     47.54% |     7086188     27.56%     75.10% |     6401613     24.90%    100.00%
system.ruby.Directory_Controller.GETX::total     25708873                      
system.ruby.Directory_Controller.PUTX    |     5897078     23.81%     23.81% |     5856193     23.65%     47.46% |     6856625     27.69%     75.14% |     6156410     24.86%    100.00%
system.ruby.Directory_Controller.PUTX::total     24766306                      
system.ruby.Directory_Controller.PUTX_NotOwner |           3     42.86%     42.86% |           3     42.86%     85.71% |           0      0.00%     85.71% |           1     14.29%    100.00%
system.ruby.Directory_Controller.PUTX_NotOwner::total            7                      
system.ruby.Directory_Controller.DMA_READ |       24825     25.23%     25.23% |       24645     25.05%     50.28% |       24510     24.91%     75.19% |       24417     24.81%    100.00%
system.ruby.Directory_Controller.DMA_READ::total        98397                      
system.ruby.Directory_Controller.DMA_WRITE |         752     25.00%     25.00% |         752     25.00%     50.00% |         752     25.00%     75.00% |         752     25.00%    100.00%
system.ruby.Directory_Controller.DMA_WRITE::total         3008                      
system.ruby.Directory_Controller.Memory_Data |     5921829     23.82%     23.82% |     5880822     23.65%     47.47% |     6881147     27.67%     75.14% |     6180856     24.86%    100.00%
system.ruby.Directory_Controller.Memory_Data::total     24864654                      
system.ruby.Directory_Controller.Memory_Ack |     5897822     23.81%     23.81% |     5856940     23.65%     47.46% |     6857372     27.68%     75.14% |     6157157     24.86%    100.00%
system.ruby.Directory_Controller.Memory_Ack::total     24769291                      
system.ruby.Directory_Controller.I.GETX  |     5897105     23.81%     23.81% |     5856217     23.65%     47.46% |     6856659     27.69%     75.14% |     6156447     24.86%    100.00%
system.ruby.Directory_Controller.I.GETX::total     24766428                      
system.ruby.Directory_Controller.I.DMA_READ |       24724     25.17%     25.17% |       24605     25.05%     50.22% |       24488     24.93%     75.15% |       24409     24.85%    100.00%
system.ruby.Directory_Controller.I.DMA_READ::total        98226                      
system.ruby.Directory_Controller.I.DMA_WRITE |         744     24.92%     24.92% |         747     25.03%     49.95% |         747     25.03%     74.97% |         747     25.03%    100.00%
system.ruby.Directory_Controller.I.DMA_WRITE::total         2985                      
system.ruby.Directory_Controller.M.GETX  |      228445     24.25%     24.25% |      239014     25.37%     49.63% |      229405     24.35%     73.98% |      245066     26.02%    100.00%
system.ruby.Directory_Controller.M.GETX::total       941930                      
system.ruby.Directory_Controller.M.PUTX  |     5896969     23.81%     23.81% |     5856148     23.65%     47.46% |     6856598     27.69%     75.14% |     6156397     24.86%    100.00%
system.ruby.Directory_Controller.M.PUTX::total     24766112                      
system.ruby.Directory_Controller.M.PUTX_NotOwner |           3     42.86%     42.86% |           3     42.86%     85.71% |           0      0.00%     85.71% |           1     14.29%    100.00%
system.ruby.Directory_Controller.M.PUTX_NotOwner::total            7                      
system.ruby.Directory_Controller.M.DMA_READ |         101     59.06%     59.06% |          40     23.39%     82.46% |          22     12.87%     95.32% |           8      4.68%    100.00%
system.ruby.Directory_Controller.M.DMA_READ::total          171                      
system.ruby.Directory_Controller.M.DMA_WRITE |           8     34.78%     34.78% |           5     21.74%     56.52% |           5     21.74%     78.26% |           5     21.74%    100.00%
system.ruby.Directory_Controller.M.DMA_WRITE::total           23                      
system.ruby.Directory_Controller.M_DRD.PUTX |         101     59.06%     59.06% |          40     23.39%     82.46% |          22     12.87%     95.32% |           8      4.68%    100.00%
system.ruby.Directory_Controller.M_DRD.PUTX::total          171                      
system.ruby.Directory_Controller.M_DWR.PUTX |           8     34.78%     34.78% |           5     21.74%     56.52% |           5     21.74%     78.26% |           5     21.74%    100.00%
system.ruby.Directory_Controller.M_DWR.PUTX::total           23                      
system.ruby.Directory_Controller.M_DWRI.Memory_Ack |           8     34.78%     34.78% |           5     21.74%     56.52% |           5     21.74%     78.26% |           5     21.74%    100.00%
system.ruby.Directory_Controller.M_DWRI.Memory_Ack::total           23                      
system.ruby.Directory_Controller.M_DRDI.Memory_Ack |         101     59.06%     59.06% |          40     23.39%     82.46% |          22     12.87%     95.32% |           8      4.68%    100.00%
system.ruby.Directory_Controller.M_DRDI.Memory_Ack::total          171                      
system.ruby.Directory_Controller.IM.GETX |         147     28.77%     28.77% |         142     27.79%     56.56% |         122     23.87%     80.43% |         100     19.57%    100.00%
system.ruby.Directory_Controller.IM.GETX::total          511                      
system.ruby.Directory_Controller.IM.Memory_Data |     5897105     23.81%     23.81% |     5856217     23.65%     47.46% |     6856659     27.69%     75.14% |     6156447     24.86%    100.00%
system.ruby.Directory_Controller.IM.Memory_Data::total     24766428                      
system.ruby.Directory_Controller.MI.GETX |           2     50.00%     50.00% |           0      0.00%     50.00% |           2     50.00%    100.00% |           0      0.00%    100.00%
system.ruby.Directory_Controller.MI.GETX::total            4                      
system.ruby.Directory_Controller.MI.Memory_Ack |     5896969     23.81%     23.81% |     5856148     23.65%     47.46% |     6856598     27.69%     75.14% |     6156397     24.86%    100.00%
system.ruby.Directory_Controller.MI.Memory_Ack::total     24766112                      
system.ruby.Directory_Controller.ID.Memory_Data |       24724     25.17%     25.17% |       24605     25.05%     50.22% |       24488     24.93%     75.15% |       24409     24.85%    100.00%
system.ruby.Directory_Controller.ID.Memory_Data::total        98226                      
system.ruby.Directory_Controller.ID_W.Memory_Ack |         744     24.92%     24.92% |         747     25.03%     49.95% |         747     25.03%     74.97% |         747     25.03%    100.00%
system.ruby.Directory_Controller.ID_W.Memory_Ack::total         2985                      
system.ruby.DMA_Controller.ReadRequest   |       98397    100.00%    100.00% |           0      0.00%    100.00%
system.ruby.DMA_Controller.ReadRequest::total        98397                      
system.ruby.DMA_Controller.WriteRequest  |        3008    100.00%    100.00% |           0      0.00%    100.00%
system.ruby.DMA_Controller.WriteRequest::total         3008                      
system.ruby.DMA_Controller.Data          |       98397    100.00%    100.00% |           0      0.00%    100.00%
system.ruby.DMA_Controller.Data::total          98397                      
system.ruby.DMA_Controller.Ack           |        3008    100.00%    100.00% |           0      0.00%    100.00%
system.ruby.DMA_Controller.Ack::total            3008                      
system.ruby.DMA_Controller.READY.ReadRequest |       98397    100.00%    100.00% |           0      0.00%    100.00%
system.ruby.DMA_Controller.READY.ReadRequest::total        98397                      
system.ruby.DMA_Controller.READY.WriteRequest |        3008    100.00%    100.00% |           0      0.00%    100.00%
system.ruby.DMA_Controller.READY.WriteRequest::total         3008                      
system.ruby.DMA_Controller.BUSY_RD.Data  |       98397    100.00%    100.00% |           0      0.00%    100.00%
system.ruby.DMA_Controller.BUSY_RD.Data::total        98397                      
system.ruby.DMA_Controller.BUSY_WR.Ack   |        3008    100.00%    100.00% |           0      0.00%    100.00%
system.ruby.DMA_Controller.BUSY_WR.Ack::total         3008                      
system.ruby.L1Cache_Controller.Load      |    14173321      2.87%      2.87% |   172250811     34.88%     37.75% |     1562152      0.32%     38.06% |   305893930     61.94%    100.00%
system.ruby.L1Cache_Controller.Load::total    493880214                      
system.ruby.L1Cache_Controller.Ifetch    |    71528737      3.19%      3.19% |   795915351     35.44%     38.63% |     7609807      0.34%     38.97% |  1370518185     61.03%    100.00%
system.ruby.L1Cache_Controller.Ifetch::total   2245572080                      
system.ruby.L1Cache_Controller.Store     |     7212001      4.15%      4.15% |    61034615     35.13%     39.28% |     1143182      0.66%     39.94% |   104343185     60.06%    100.00%
system.ruby.L1Cache_Controller.Store::total    173732983                      
system.ruby.L1Cache_Controller.Data      |      791143      3.08%      3.08% |     9619095     37.42%     40.49% |      367433      1.43%     41.92% |    14930687     58.08%    100.00%
system.ruby.L1Cache_Controller.Data::total     25708358                      
system.ruby.L1Cache_Controller.Fwd_GETX  |      266217     28.26%     28.26% |      219048     23.26%     51.52% |      287217     30.49%     82.01% |      169448     17.99%    100.00%
system.ruby.L1Cache_Controller.Fwd_GETX::total       941930                      
system.ruby.L1Cache_Controller.Inv       |          84     21.65%     21.65% |         154     39.69%     61.34% |          80     20.62%     81.96% |          70     18.04%    100.00%
system.ruby.L1Cache_Controller.Inv::total          388                      
system.ruby.L1Cache_Controller.Replacement |      559357      2.25%      2.25% |     9439261     37.89%     40.14% |      112717      0.45%     40.59% |    14799342     59.41%    100.00%
system.ruby.L1Cache_Controller.Replacement::total     24910677                      
system.ruby.L1Cache_Controller.Writeback_Ack |      525151      2.12%      2.12% |     9399843     37.95%     40.07% |       80937      0.33%     40.40% |    14760375     59.60%    100.00%
system.ruby.L1Cache_Controller.Writeback_Ack::total     24766306                      
system.ruby.L1Cache_Controller.Writeback_Nack |           1     14.29%     14.29% |           1     14.29%     28.57% |           2     28.57%     57.14% |           3     42.86%    100.00%
system.ruby.L1Cache_Controller.Writeback_Nack::total            7                      
system.ruby.L1Cache_Controller.I.Load    |      266098      1.73%      1.73% |     5532766     35.97%     37.70% |       86030      0.56%     38.26% |     9497112     61.74%    100.00%
system.ruby.L1Cache_Controller.I.Load::total     15382006                      
system.ruby.L1Cache_Controller.I.Ifetch  |      464737      5.47%      5.47% |     3397052     39.96%     45.42% |      265730      3.13%     48.55% |     4374166     51.45%    100.00%
system.ruby.L1Cache_Controller.I.Ifetch::total      8501685                      
system.ruby.L1Cache_Controller.I.Store   |       60308      3.31%      3.31% |      689277     37.78%     41.08% |       15673      0.86%     41.94% |     1059409     58.06%    100.00%
system.ruby.L1Cache_Controller.I.Store::total      1824667                      
system.ruby.L1Cache_Controller.I.Replacement |       34247     23.69%     23.69% |       39494     27.32%     51.01% |       31818     22.01%     73.02% |       38999     26.98%    100.00%
system.ruby.L1Cache_Controller.I.Replacement::total       144558                      
system.ruby.L1Cache_Controller.II.Writeback_Nack |           1     14.29%     14.29% |           1     14.29%     28.57% |           2     28.57%     57.14% |           3     42.86%    100.00%
system.ruby.L1Cache_Controller.II.Writeback_Nack::total            7                      
system.ruby.L1Cache_Controller.M.Load    |    13907223      2.91%      2.91% |   166718045     34.84%     37.75% |     1476122      0.31%     38.06% |   296396818     61.94%    100.00%
system.ruby.L1Cache_Controller.M.Load::total    478498208                      
system.ruby.L1Cache_Controller.M.Ifetch  |    71064000      3.18%      3.18% |   792518299     35.43%     38.60% |     7344077      0.33%     38.93% |  1366144019     61.07%    100.00%
system.ruby.L1Cache_Controller.M.Ifetch::total   2237070395                      
system.ruby.L1Cache_Controller.M.Store   |     7151693      4.16%      4.16% |    60345338     35.10%     39.26% |     1127509      0.66%     39.92% |   103283776     60.08%    100.00%
system.ruby.L1Cache_Controller.M.Store::total    171908316                      
system.ruby.L1Cache_Controller.M.Fwd_GETX |      266216     28.26%     28.26% |      219047     23.26%     51.52% |      287215     30.49%     82.01% |      169445     17.99%    100.00%
system.ruby.L1Cache_Controller.M.Fwd_GETX::total       941923                      
system.ruby.L1Cache_Controller.M.Inv     |          42     21.65%     21.65% |          77     39.69%     61.34% |          40     20.62%     81.96% |          35     18.04%    100.00%
system.ruby.L1Cache_Controller.M.Inv::total          194                      
system.ruby.L1Cache_Controller.M.Replacement |      525110      2.12%      2.12% |     9399767     37.95%     40.07% |       80899      0.33%     40.40% |    14760343     59.60%    100.00%
system.ruby.L1Cache_Controller.M.Replacement::total     24766119                      
system.ruby.L1Cache_Controller.MI.Fwd_GETX |           1     14.29%     14.29% |           1     14.29%     28.57% |           2     28.57%     57.14% |           3     42.86%    100.00%
system.ruby.L1Cache_Controller.MI.Fwd_GETX::total            7                      
system.ruby.L1Cache_Controller.MI.Inv    |          42     21.65%     21.65% |          77     39.69%     61.34% |          40     20.62%     81.96% |          35     18.04%    100.00%
system.ruby.L1Cache_Controller.MI.Inv::total          194                      
system.ruby.L1Cache_Controller.MI.Writeback_Ack |      525151      2.12%      2.12% |     9399843     37.95%     40.07% |       80937      0.33%     40.40% |    14760375     59.60%    100.00%
system.ruby.L1Cache_Controller.MI.Writeback_Ack::total     24766306                      
system.ruby.L1Cache_Controller.IS.Data   |      730835      3.06%      3.06% |     8929818     37.39%     40.45% |      351760      1.47%     41.92% |    13871278     58.08%    100.00%
system.ruby.L1Cache_Controller.IS.Data::total     23883691                      
system.ruby.L1Cache_Controller.IM.Data   |       60308      3.31%      3.31% |      689277     37.78%     41.08% |       15673      0.86%     41.94% |     1059409     58.06%    100.00%
system.ruby.L1Cache_Controller.IM.Data::total      1824667                      

---------- End Simulation Statistics   ----------
