
---------- Begin Simulation Statistics ----------
sim_seconds                                  0.462217                       # Number of seconds simulated
sim_ticks                                462217471500                       # Number of ticks simulated
final_tick                               52777750815001                       # Number of ticks from beginning of simulation (restored from checkpoints and never reset)
sim_freq                                 1000000000000                       # Frequency of simulated ticks
host_inst_rate                                 137709                       # Simulator instruction rate (inst/s)
host_op_rate                                   248538                       # Simulator op (including micro ops) rate (op/s)
host_tick_rate                              236663218                       # Simulator tick rate (ticks/s)
host_mem_usage                                1758224                       # Number of bytes of host memory used
host_seconds                                  1953.06                       # Real time elapsed on the host
sim_insts                                   268953207                       # Number of instructions simulated
sim_ops                                     485409131                       # Number of ops (including micro ops) simulated
system.voltage_domain.voltage                       1                       # Voltage in Volts
system.clk_domain.clock                          1000                       # Clock period in ticks
system.mem_ctrls.bytes_read::ruby.dir_cntrl0       581760                       # Number of bytes read from this memory
system.mem_ctrls.bytes_read::total             581760                       # Number of bytes read from this memory
system.mem_ctrls.bytes_written::ruby.dir_cntrl0       239872                       # Number of bytes written to this memory
system.mem_ctrls.bytes_written::total          239872                       # Number of bytes written to this memory
system.mem_ctrls.num_reads::ruby.dir_cntrl0         4545                       # Number of read requests responded to by this memory
system.mem_ctrls.num_reads::total                4545                       # Number of read requests responded to by this memory
system.mem_ctrls.num_writes::ruby.dir_cntrl0         1874                       # Number of write requests responded to by this memory
system.mem_ctrls.num_writes::total               1874                       # Number of write requests responded to by this memory
system.mem_ctrls.bw_read::ruby.dir_cntrl0      1258628                       # Total read bandwidth from this memory (bytes/s)
system.mem_ctrls.bw_read::total               1258628                       # Total read bandwidth from this memory (bytes/s)
system.mem_ctrls.bw_write::ruby.dir_cntrl0       518959                       # Write bandwidth from this memory (bytes/s)
system.mem_ctrls.bw_write::total               518959                       # Write bandwidth from this memory (bytes/s)
system.mem_ctrls.bw_total::ruby.dir_cntrl0      1777588                       # Total bandwidth to/from this memory (bytes/s)
system.mem_ctrls.bw_total::total              1777588                       # Total bandwidth to/from this memory (bytes/s)
system.mem_ctrls.readReqs                        4545                       # Number of read requests accepted
system.mem_ctrls.writeReqs                       1874                       # Number of write requests accepted
system.mem_ctrls.readBursts                      9090                       # Number of DRAM read bursts, including those serviced by the write queue
system.mem_ctrls.writeBursts                     3748                       # Number of DRAM write bursts, including those merged in the write queue
system.mem_ctrls.bytesReadDRAM                 579008                       # Total number of bytes read from DRAM
system.mem_ctrls.bytesReadWrQ                    2752                       # Total number of bytes read from write queue
system.mem_ctrls.bytesWritten                  240576                       # Total number of bytes written to DRAM
system.mem_ctrls.bytesReadSys                  581760                       # Total read bytes from the system interface side
system.mem_ctrls.bytesWrittenSys               239872                       # Total written bytes from the system interface side
system.mem_ctrls.servicedByWrQ                     43                       # Number of DRAM read bursts serviced by the write queue
system.mem_ctrls.mergedWrBursts                     0                       # Number of DRAM write bursts merged with an existing one
system.mem_ctrls.neitherReadNorWriteReqs            0                       # Number of requests that are neither read nor write
system.mem_ctrls.perBankRdBursts::0               725                       # Per bank write bursts
system.mem_ctrls.perBankRdBursts::1               531                       # Per bank write bursts
system.mem_ctrls.perBankRdBursts::2               829                       # Per bank write bursts
system.mem_ctrls.perBankRdBursts::3               434                       # Per bank write bursts
system.mem_ctrls.perBankRdBursts::4               690                       # Per bank write bursts
system.mem_ctrls.perBankRdBursts::5               438                       # Per bank write bursts
system.mem_ctrls.perBankRdBursts::6               506                       # Per bank write bursts
system.mem_ctrls.perBankRdBursts::7               620                       # Per bank write bursts
system.mem_ctrls.perBankRdBursts::8               546                       # Per bank write bursts
system.mem_ctrls.perBankRdBursts::9               604                       # Per bank write bursts
system.mem_ctrls.perBankRdBursts::10              524                       # Per bank write bursts
system.mem_ctrls.perBankRdBursts::11              522                       # Per bank write bursts
system.mem_ctrls.perBankRdBursts::12              420                       # Per bank write bursts
system.mem_ctrls.perBankRdBursts::13              562                       # Per bank write bursts
system.mem_ctrls.perBankRdBursts::14              696                       # Per bank write bursts
system.mem_ctrls.perBankRdBursts::15              400                       # Per bank write bursts
system.mem_ctrls.perBankWrBursts::0               236                       # Per bank write bursts
system.mem_ctrls.perBankWrBursts::1               304                       # Per bank write bursts
system.mem_ctrls.perBankWrBursts::2               407                       # Per bank write bursts
system.mem_ctrls.perBankWrBursts::3               154                       # Per bank write bursts
system.mem_ctrls.perBankWrBursts::4               404                       # Per bank write bursts
system.mem_ctrls.perBankWrBursts::5               352                       # Per bank write bursts
system.mem_ctrls.perBankWrBursts::6               134                       # Per bank write bursts
system.mem_ctrls.perBankWrBursts::7               412                       # Per bank write bursts
system.mem_ctrls.perBankWrBursts::8               288                       # Per bank write bursts
system.mem_ctrls.perBankWrBursts::9               222                       # Per bank write bursts
system.mem_ctrls.perBankWrBursts::10              142                       # Per bank write bursts
system.mem_ctrls.perBankWrBursts::11               76                       # Per bank write bursts
system.mem_ctrls.perBankWrBursts::12               82                       # Per bank write bursts
system.mem_ctrls.perBankWrBursts::13              138                       # Per bank write bursts
system.mem_ctrls.perBankWrBursts::14              232                       # Per bank write bursts
system.mem_ctrls.perBankWrBursts::15              176                       # Per bank write bursts
system.mem_ctrls.numRdRetry                         0                       # Number of times read queue was full causing retry
system.mem_ctrls.numWrRetry                         0                       # Number of times write queue was full causing retry
system.mem_ctrls.totGap                  462217448500                       # Total gap between requests
system.mem_ctrls.readPktSize::0                     0                       # Read request sizes (log2)
system.mem_ctrls.readPktSize::1                     0                       # Read request sizes (log2)
system.mem_ctrls.readPktSize::2                     0                       # Read request sizes (log2)
system.mem_ctrls.readPktSize::3                     0                       # Read request sizes (log2)
system.mem_ctrls.readPktSize::4                     0                       # Read request sizes (log2)
system.mem_ctrls.readPktSize::5                     0                       # Read request sizes (log2)
system.mem_ctrls.readPktSize::6                  9090                       # Read request sizes (log2)
system.mem_ctrls.writePktSize::0                    0                       # Write request sizes (log2)
system.mem_ctrls.writePktSize::1                    0                       # Write request sizes (log2)
system.mem_ctrls.writePktSize::2                    0                       # Write request sizes (log2)
system.mem_ctrls.writePktSize::3                    0                       # Write request sizes (log2)
system.mem_ctrls.writePktSize::4                    0                       # Write request sizes (log2)
system.mem_ctrls.writePktSize::5                    0                       # Write request sizes (log2)
system.mem_ctrls.writePktSize::6                 3748                       # Write request sizes (log2)
system.mem_ctrls.rdQLenPdf::0                    4414                       # What read queue length does an incoming req see
system.mem_ctrls.rdQLenPdf::1                    4430                       # What read queue length does an incoming req see
system.mem_ctrls.rdQLenPdf::2                     111                       # What read queue length does an incoming req see
system.mem_ctrls.rdQLenPdf::3                      92                       # What read queue length does an incoming req see
system.mem_ctrls.rdQLenPdf::4                       0                       # What read queue length does an incoming req see
system.mem_ctrls.rdQLenPdf::5                       0                       # What read queue length does an incoming req see
system.mem_ctrls.rdQLenPdf::6                       0                       # What read queue length does an incoming req see
system.mem_ctrls.rdQLenPdf::7                       0                       # What read queue length does an incoming req see
system.mem_ctrls.rdQLenPdf::8                       0                       # What read queue length does an incoming req see
system.mem_ctrls.rdQLenPdf::9                       0                       # What read queue length does an incoming req see
system.mem_ctrls.rdQLenPdf::10                      0                       # What read queue length does an incoming req see
system.mem_ctrls.rdQLenPdf::11                      0                       # What read queue length does an incoming req see
system.mem_ctrls.rdQLenPdf::12                      0                       # What read queue length does an incoming req see
system.mem_ctrls.rdQLenPdf::13                      0                       # What read queue length does an incoming req see
system.mem_ctrls.rdQLenPdf::14                      0                       # What read queue length does an incoming req see
system.mem_ctrls.rdQLenPdf::15                      0                       # What read queue length does an incoming req see
system.mem_ctrls.rdQLenPdf::16                      0                       # What read queue length does an incoming req see
system.mem_ctrls.rdQLenPdf::17                      0                       # What read queue length does an incoming req see
system.mem_ctrls.rdQLenPdf::18                      0                       # What read queue length does an incoming req see
system.mem_ctrls.rdQLenPdf::19                      0                       # What read queue length does an incoming req see
system.mem_ctrls.rdQLenPdf::20                      0                       # What read queue length does an incoming req see
system.mem_ctrls.rdQLenPdf::21                      0                       # What read queue length does an incoming req see
system.mem_ctrls.rdQLenPdf::22                      0                       # What read queue length does an incoming req see
system.mem_ctrls.rdQLenPdf::23                      0                       # What read queue length does an incoming req see
system.mem_ctrls.rdQLenPdf::24                      0                       # What read queue length does an incoming req see
system.mem_ctrls.rdQLenPdf::25                      0                       # What read queue length does an incoming req see
system.mem_ctrls.rdQLenPdf::26                      0                       # What read queue length does an incoming req see
system.mem_ctrls.rdQLenPdf::27                      0                       # What read queue length does an incoming req see
system.mem_ctrls.rdQLenPdf::28                      0                       # What read queue length does an incoming req see
system.mem_ctrls.rdQLenPdf::29                      0                       # What read queue length does an incoming req see
system.mem_ctrls.rdQLenPdf::30                      0                       # What read queue length does an incoming req see
system.mem_ctrls.rdQLenPdf::31                      0                       # What read queue length does an incoming req see
system.mem_ctrls.wrQLenPdf::0                       0                       # What write queue length does an incoming req see
system.mem_ctrls.wrQLenPdf::1                       0                       # What write queue length does an incoming req see
system.mem_ctrls.wrQLenPdf::2                       0                       # What write queue length does an incoming req see
system.mem_ctrls.wrQLenPdf::3                       0                       # What write queue length does an incoming req see
system.mem_ctrls.wrQLenPdf::4                       0                       # What write queue length does an incoming req see
system.mem_ctrls.wrQLenPdf::5                       0                       # What write queue length does an incoming req see
system.mem_ctrls.wrQLenPdf::6                       0                       # What write queue length does an incoming req see
system.mem_ctrls.wrQLenPdf::7                       0                       # What write queue length does an incoming req see
system.mem_ctrls.wrQLenPdf::8                       0                       # What write queue length does an incoming req see
system.mem_ctrls.wrQLenPdf::9                       0                       # What write queue length does an incoming req see
system.mem_ctrls.wrQLenPdf::10                      0                       # What write queue length does an incoming req see
system.mem_ctrls.wrQLenPdf::11                      0                       # What write queue length does an incoming req see
system.mem_ctrls.wrQLenPdf::12                      0                       # What write queue length does an incoming req see
system.mem_ctrls.wrQLenPdf::13                      0                       # What write queue length does an incoming req see
system.mem_ctrls.wrQLenPdf::14                      0                       # What write queue length does an incoming req see
system.mem_ctrls.wrQLenPdf::15                     73                       # What write queue length does an incoming req see
system.mem_ctrls.wrQLenPdf::16                    108                       # What write queue length does an incoming req see
system.mem_ctrls.wrQLenPdf::17                    207                       # What write queue length does an incoming req see
system.mem_ctrls.wrQLenPdf::18                    212                       # What write queue length does an incoming req see
system.mem_ctrls.wrQLenPdf::19                    244                       # What write queue length does an incoming req see
system.mem_ctrls.wrQLenPdf::20                    236                       # What write queue length does an incoming req see
system.mem_ctrls.wrQLenPdf::21                    261                       # What write queue length does an incoming req see
system.mem_ctrls.wrQLenPdf::22                    270                       # What write queue length does an incoming req see
system.mem_ctrls.wrQLenPdf::23                    269                       # What write queue length does an incoming req see
system.mem_ctrls.wrQLenPdf::24                    263                       # What write queue length does an incoming req see
system.mem_ctrls.wrQLenPdf::25                    221                       # What write queue length does an incoming req see
system.mem_ctrls.wrQLenPdf::26                    222                       # What write queue length does an incoming req see
system.mem_ctrls.wrQLenPdf::27                    213                       # What write queue length does an incoming req see
system.mem_ctrls.wrQLenPdf::28                    194                       # What write queue length does an incoming req see
system.mem_ctrls.wrQLenPdf::29                    171                       # What write queue length does an incoming req see
system.mem_ctrls.wrQLenPdf::30                    175                       # What write queue length does an incoming req see
system.mem_ctrls.wrQLenPdf::31                    163                       # What write queue length does an incoming req see
system.mem_ctrls.wrQLenPdf::32                    158                       # What write queue length does an incoming req see
system.mem_ctrls.wrQLenPdf::33                     19                       # What write queue length does an incoming req see
system.mem_ctrls.wrQLenPdf::34                      5                       # What write queue length does an incoming req see
system.mem_ctrls.wrQLenPdf::35                      4                       # What write queue length does an incoming req see
system.mem_ctrls.wrQLenPdf::36                      4                       # What write queue length does an incoming req see
system.mem_ctrls.wrQLenPdf::37                      4                       # What write queue length does an incoming req see
system.mem_ctrls.wrQLenPdf::38                      4                       # What write queue length does an incoming req see
system.mem_ctrls.wrQLenPdf::39                      3                       # What write queue length does an incoming req see
system.mem_ctrls.wrQLenPdf::40                      4                       # What write queue length does an incoming req see
system.mem_ctrls.wrQLenPdf::41                      4                       # What write queue length does an incoming req see
system.mem_ctrls.wrQLenPdf::42                      3                       # What write queue length does an incoming req see
system.mem_ctrls.wrQLenPdf::43                      3                       # What write queue length does an incoming req see
system.mem_ctrls.wrQLenPdf::44                      3                       # What write queue length does an incoming req see
system.mem_ctrls.wrQLenPdf::45                      4                       # What write queue length does an incoming req see
system.mem_ctrls.wrQLenPdf::46                      5                       # What write queue length does an incoming req see
system.mem_ctrls.wrQLenPdf::47                      6                       # What write queue length does an incoming req see
system.mem_ctrls.wrQLenPdf::48                      4                       # What write queue length does an incoming req see
system.mem_ctrls.wrQLenPdf::49                      3                       # What write queue length does an incoming req see
system.mem_ctrls.wrQLenPdf::50                      3                       # What write queue length does an incoming req see
system.mem_ctrls.wrQLenPdf::51                      1                       # What write queue length does an incoming req see
system.mem_ctrls.wrQLenPdf::52                      1                       # What write queue length does an incoming req see
system.mem_ctrls.wrQLenPdf::53                      1                       # What write queue length does an incoming req see
system.mem_ctrls.wrQLenPdf::54                      0                       # What write queue length does an incoming req see
system.mem_ctrls.wrQLenPdf::55                      0                       # What write queue length does an incoming req see
system.mem_ctrls.wrQLenPdf::56                      0                       # What write queue length does an incoming req see
system.mem_ctrls.wrQLenPdf::57                      0                       # What write queue length does an incoming req see
system.mem_ctrls.wrQLenPdf::58                      0                       # What write queue length does an incoming req see
system.mem_ctrls.wrQLenPdf::59                      0                       # What write queue length does an incoming req see
system.mem_ctrls.wrQLenPdf::60                      0                       # What write queue length does an incoming req see
system.mem_ctrls.wrQLenPdf::61                      0                       # What write queue length does an incoming req see
system.mem_ctrls.wrQLenPdf::62                      0                       # What write queue length does an incoming req see
system.mem_ctrls.wrQLenPdf::63                      0                       # What write queue length does an incoming req see
system.mem_ctrls.bytesPerActivate::samples         2753                       # Bytes accessed per row activation
system.mem_ctrls.bytesPerActivate::mean    297.752270                       # Bytes accessed per row activation
system.mem_ctrls.bytesPerActivate::gmean   214.072997                       # Bytes accessed per row activation
system.mem_ctrls.bytesPerActivate::stdev   291.386618                       # Bytes accessed per row activation
system.mem_ctrls.bytesPerActivate::0-127           57      2.07%      2.07% # Bytes accessed per row activation
system.mem_ctrls.bytesPerActivate::128-255         1525     55.39%     57.46% # Bytes accessed per row activation
system.mem_ctrls.bytesPerActivate::256-383          564     20.49%     77.95% # Bytes accessed per row activation
system.mem_ctrls.bytesPerActivate::384-511          119      4.32%     82.27% # Bytes accessed per row activation
system.mem_ctrls.bytesPerActivate::512-639           83      3.01%     85.29% # Bytes accessed per row activation
system.mem_ctrls.bytesPerActivate::640-767           41      1.49%     86.78% # Bytes accessed per row activation
system.mem_ctrls.bytesPerActivate::768-895           34      1.24%     88.01% # Bytes accessed per row activation
system.mem_ctrls.bytesPerActivate::896-1023           36      1.31%     89.32% # Bytes accessed per row activation
system.mem_ctrls.bytesPerActivate::1024-1151          294     10.68%    100.00% # Bytes accessed per row activation
system.mem_ctrls.bytesPerActivate::total         2753                       # Bytes accessed per row activation
system.mem_ctrls.rdPerTurnAround::samples          146                       # Reads before turning the bus around for writes
system.mem_ctrls.rdPerTurnAround::mean     178.253425                       # Reads before turning the bus around for writes
system.mem_ctrls.rdPerTurnAround::stdev   1408.891326                       # Reads before turning the bus around for writes
system.mem_ctrls.rdPerTurnAround::0-1023          145     99.32%     99.32% # Reads before turning the bus around for writes
system.mem_ctrls.rdPerTurnAround::16384-17407            1      0.68%    100.00% # Reads before turning the bus around for writes
system.mem_ctrls.rdPerTurnAround::total           146                       # Reads before turning the bus around for writes
system.mem_ctrls.wrPerTurnAround::samples          146                       # Writes before turning the bus around for reads
system.mem_ctrls.wrPerTurnAround::mean      25.746575                       # Writes before turning the bus around for reads
system.mem_ctrls.wrPerTurnAround::gmean     23.490924                       # Writes before turning the bus around for reads
system.mem_ctrls.wrPerTurnAround::stdev     12.546637                       # Writes before turning the bus around for reads
system.mem_ctrls.wrPerTurnAround::16-17            60     41.10%     41.10% # Writes before turning the bus around for reads
system.mem_ctrls.wrPerTurnAround::18-19             8      5.48%     46.58% # Writes before turning the bus around for reads
system.mem_ctrls.wrPerTurnAround::20-21             1      0.68%     47.26% # Writes before turning the bus around for reads
system.mem_ctrls.wrPerTurnAround::22-23             2      1.37%     48.63% # Writes before turning the bus around for reads
system.mem_ctrls.wrPerTurnAround::24-25             1      0.68%     49.32% # Writes before turning the bus around for reads
system.mem_ctrls.wrPerTurnAround::26-27            23     15.75%     65.07% # Writes before turning the bus around for reads
system.mem_ctrls.wrPerTurnAround::28-29            14      9.59%     74.66% # Writes before turning the bus around for reads
system.mem_ctrls.wrPerTurnAround::30-31             8      5.48%     80.14% # Writes before turning the bus around for reads
system.mem_ctrls.wrPerTurnAround::32-33             3      2.05%     82.19% # Writes before turning the bus around for reads
system.mem_ctrls.wrPerTurnAround::34-35             4      2.74%     84.93% # Writes before turning the bus around for reads
system.mem_ctrls.wrPerTurnAround::36-37             8      5.48%     90.41% # Writes before turning the bus around for reads
system.mem_ctrls.wrPerTurnAround::46-47             4      2.74%     93.15% # Writes before turning the bus around for reads
system.mem_ctrls.wrPerTurnAround::50-51             1      0.68%     93.84% # Writes before turning the bus around for reads
system.mem_ctrls.wrPerTurnAround::56-57             2      1.37%     95.21% # Writes before turning the bus around for reads
system.mem_ctrls.wrPerTurnAround::60-61             2      1.37%     96.58% # Writes before turning the bus around for reads
system.mem_ctrls.wrPerTurnAround::64-65             1      0.68%     97.26% # Writes before turning the bus around for reads
system.mem_ctrls.wrPerTurnAround::66-67             2      1.37%     98.63% # Writes before turning the bus around for reads
system.mem_ctrls.wrPerTurnAround::68-69             2      1.37%    100.00% # Writes before turning the bus around for reads
system.mem_ctrls.wrPerTurnAround::total           146                       # Writes before turning the bus around for reads
system.mem_ctrls.totQLat                    150242748                       # Total ticks spent queuing
system.mem_ctrls.totMemAccLat               319873998                       # Total ticks spent from burst creation until serviced by the DRAM
system.mem_ctrls.totBusLat                   45235000                       # Total ticks spent in databus transfers
system.mem_ctrls.avgQLat                     16606.91                       # Average queueing delay per DRAM burst
system.mem_ctrls.avgBusLat                    5000.00                       # Average bus latency per DRAM burst
system.mem_ctrls.avgMemAccLat                35356.91                       # Average memory access latency per DRAM burst
system.mem_ctrls.avgRdBW                         1.25                       # Average DRAM read bandwidth in MiByte/s
system.mem_ctrls.avgWrBW                         0.52                       # Average achieved write bandwidth in MiByte/s
system.mem_ctrls.avgRdBWSys                      1.26                       # Average system read bandwidth in MiByte/s
system.mem_ctrls.avgWrBWSys                      0.52                       # Average system write bandwidth in MiByte/s
system.mem_ctrls.peakBW                      12800.00                       # Theoretical peak bandwidth in MiByte/s
system.mem_ctrls.busUtil                         0.01                       # Data bus utilization in percentage
system.mem_ctrls.busUtilRead                     0.01                       # Data bus utilization in percentage for reads
system.mem_ctrls.busUtilWrite                    0.00                       # Data bus utilization in percentage for writes
system.mem_ctrls.avgRdQLen                       2.00                       # Average read queue length when enqueuing
system.mem_ctrls.avgWrQLen                      23.49                       # Average write queue length when enqueuing
system.mem_ctrls.readRowHits                     6824                       # Number of row buffer hits during reads
system.mem_ctrls.writeRowHits                    3229                       # Number of row buffer hits during writes
system.mem_ctrls.readRowHitRate                 75.43                       # Row buffer hit rate for reads
system.mem_ctrls.writeRowHitRate                86.15                       # Row buffer hit rate for writes
system.mem_ctrls.avgGap                   72007703.46                       # Average gap between requests
system.mem_ctrls.pageHitRate                    78.57                       # Row buffer hit rate, read and write combined
system.mem_ctrls_0.actEnergy                 23851800                       # Energy for activate commands per rank (pJ)
system.mem_ctrls_0.preEnergy                 13014375                       # Energy for precharge commands per rank (pJ)
system.mem_ctrls_0.readEnergy               106665000                       # Energy for read commands per rank (pJ)
system.mem_ctrls_0.writeEnergy               15571440                       # Energy for write commands per rank (pJ)
system.mem_ctrls_0.refreshEnergy          30383408640                       # Energy for refresh commands per rank (pJ)
system.mem_ctrls_0.actBackEnergy          12512777940                       # Energy for active background per rank (pJ)
system.mem_ctrls_0.preBackEnergy         268133067000                       # Energy for precharge background per rank (pJ)
system.mem_ctrls_0.totalEnergy           311188356195                       # Total energy per rank (pJ)
system.mem_ctrls_0.averagePower            668.960470                       # Core power per rank (mW)
system.mem_ctrls_0.memoryStateTime::IDLE 444857111250                       # Time in different power states
system.mem_ctrls_0.memoryStateTime::REF   15434380000                       # Time in different power states
system.mem_ctrls_0.memoryStateTime::PRE_PDN            0                       # Time in different power states
system.mem_ctrls_0.memoryStateTime::ACT    1926026250                       # Time in different power states
system.mem_ctrls_0.memoryStateTime::ACT_PDN            0                       # Time in different power states
system.mem_ctrls_1.actEnergy                 20185200                       # Energy for activate commands per rank (pJ)
system.mem_ctrls_1.preEnergy                 11013750                       # Energy for precharge commands per rank (pJ)
system.mem_ctrls_1.readEnergy                96361200                       # Energy for read commands per rank (pJ)
system.mem_ctrls_1.writeEnergy                8786880                       # Energy for write commands per rank (pJ)
system.mem_ctrls_1.refreshEnergy          30383408640                       # Energy for refresh commands per rank (pJ)
system.mem_ctrls_1.actBackEnergy          12298001940                       # Energy for active background per rank (pJ)
system.mem_ctrls_1.preBackEnergy         268321458750                       # Energy for precharge background per rank (pJ)
system.mem_ctrls_1.totalEnergy           311139216360                       # Total energy per rank (pJ)
system.mem_ctrls_1.averagePower            668.854855                       # Core power per rank (mW)
system.mem_ctrls_1.memoryStateTime::IDLE 445042059250                       # Time in different power states
system.mem_ctrls_1.memoryStateTime::REF   15434380000                       # Time in different power states
system.mem_ctrls_1.memoryStateTime::PRE_PDN            0                       # Time in different power states
system.mem_ctrls_1.memoryStateTime::ACT    1738705750                       # Time in different power states
system.mem_ctrls_1.memoryStateTime::ACT_PDN            0                       # Time in different power states
system.cpu_voltage_domain.voltage                   1                       # Voltage in Volts
system.cpu_clk_domain.clock                       500                       # Clock period in ticks
system.cpu0.apic_clk_domain.clock                8000                       # Clock period in ticks
system.cpu0.numCycles                       922265405                       # number of cpu cycles simulated
system.cpu0.numWorkItemsStarted                     0                       # number of work items this cpu started
system.cpu0.numWorkItemsCompleted                   0                       # number of work items this cpu completed
system.cpu0.kern.inst.arm                           0                       # number of arm instructions executed
system.cpu0.kern.inst.quiesce                       0                       # number of quiesce instructions executed
system.cpu0.committedInsts                     388168                       # Number of instructions committed
system.cpu0.committedOps                       835591                       # Number of ops (including micro ops) committed
system.cpu0.num_int_alu_accesses               819592                       # Number of integer alu accesses
system.cpu0.num_fp_alu_accesses                    33                       # Number of float alu accesses
system.cpu0.num_func_calls                      24749                       # number of times a function call or return occured
system.cpu0.num_conditional_control_insts        56504                       # number of instructions that are conditional controls
system.cpu0.num_int_insts                      819592                       # number of integer instructions
system.cpu0.num_fp_insts                           33                       # number of float instructions
system.cpu0.num_int_register_reads            1650575                       # number of times the integer registers were read
system.cpu0.num_int_register_writes            674505                       # number of times the integer registers were written
system.cpu0.num_fp_register_reads                  14                       # number of times the floating registers were read
system.cpu0.num_fp_register_writes                 25                       # number of times the floating registers were written
system.cpu0.num_cc_register_reads              458088                       # number of times the CC registers were read
system.cpu0.num_cc_register_writes             254499                       # number of times the CC registers were written
system.cpu0.num_mem_refs                       194595                       # number of memory refs
system.cpu0.num_load_insts                     120191                       # Number of load instructions
system.cpu0.num_store_insts                     74404                       # Number of store instructions
system.cpu0.num_idle_cycles              920576048.044883                       # Number of idle cycles
system.cpu0.num_busy_cycles              1689356.955117                       # Number of busy cycles
system.cpu0.not_idle_fraction                0.001832                       # Percentage of non-idle cycles
system.cpu0.idle_fraction                    0.998168                       # Percentage of idle cycles
system.cpu0.Branches                            88660                       # Number of branches fetched
system.cpu0.op_class::No_OpClass                11698      1.40%      1.40% # Class of executed instruction
system.cpu0.op_class::IntAlu                   624011     74.68%     76.08% # Class of executed instruction
system.cpu0.op_class::IntMult                    1631      0.20%     76.27% # Class of executed instruction
system.cpu0.op_class::IntDiv                     3642      0.44%     76.71% # Class of executed instruction
system.cpu0.op_class::FloatAdd                     17      0.00%     76.71% # Class of executed instruction
system.cpu0.op_class::FloatCmp                      0      0.00%     76.71% # Class of executed instruction
system.cpu0.op_class::FloatCvt                      0      0.00%     76.71% # Class of executed instruction
system.cpu0.op_class::FloatMult                     0      0.00%     76.71% # Class of executed instruction
system.cpu0.op_class::FloatDiv                      0      0.00%     76.71% # Class of executed instruction
system.cpu0.op_class::FloatSqrt                     0      0.00%     76.71% # Class of executed instruction
system.cpu0.op_class::SimdAdd                       0      0.00%     76.71% # Class of executed instruction
system.cpu0.op_class::SimdAddAcc                    0      0.00%     76.71% # Class of executed instruction
system.cpu0.op_class::SimdAlu                       0      0.00%     76.71% # Class of executed instruction
system.cpu0.op_class::SimdCmp                       0      0.00%     76.71% # Class of executed instruction
system.cpu0.op_class::SimdCvt                       0      0.00%     76.71% # Class of executed instruction
system.cpu0.op_class::SimdMisc                      0      0.00%     76.71% # Class of executed instruction
system.cpu0.op_class::SimdMult                      0      0.00%     76.71% # Class of executed instruction
system.cpu0.op_class::SimdMultAcc                   0      0.00%     76.71% # Class of executed instruction
system.cpu0.op_class::SimdShift                     0      0.00%     76.71% # Class of executed instruction
system.cpu0.op_class::SimdShiftAcc                  0      0.00%     76.71% # Class of executed instruction
system.cpu0.op_class::SimdSqrt                      0      0.00%     76.71% # Class of executed instruction
system.cpu0.op_class::SimdFloatAdd                  0      0.00%     76.71% # Class of executed instruction
system.cpu0.op_class::SimdFloatAlu                  0      0.00%     76.71% # Class of executed instruction
system.cpu0.op_class::SimdFloatCmp                  0      0.00%     76.71% # Class of executed instruction
system.cpu0.op_class::SimdFloatCvt                  0      0.00%     76.71% # Class of executed instruction
system.cpu0.op_class::SimdFloatDiv                  0      0.00%     76.71% # Class of executed instruction
system.cpu0.op_class::SimdFloatMisc                 0      0.00%     76.71% # Class of executed instruction
system.cpu0.op_class::SimdFloatMult                 0      0.00%     76.71% # Class of executed instruction
system.cpu0.op_class::SimdFloatMultAcc              0      0.00%     76.71% # Class of executed instruction
system.cpu0.op_class::SimdFloatSqrt                 0      0.00%     76.71% # Class of executed instruction
system.cpu0.op_class::MemRead                  120191     14.38%     91.10% # Class of executed instruction
system.cpu0.op_class::MemWrite                  74404      8.90%    100.00% # Class of executed instruction
system.cpu0.op_class::IprAccess                     0      0.00%    100.00% # Class of executed instruction
system.cpu0.op_class::InstPrefetch                  0      0.00%    100.00% # Class of executed instruction
system.cpu0.op_class::total                    835594                       # Class of executed instruction
system.cpu1.apic_clk_domain.clock                8000                       # Clock period in ticks
system.cpu1.numCycles                       922688406                       # number of cpu cycles simulated
system.cpu1.numWorkItemsStarted                     0                       # number of work items this cpu started
system.cpu1.numWorkItemsCompleted                   0                       # number of work items this cpu completed
system.cpu1.kern.inst.arm                           0                       # number of arm instructions executed
system.cpu1.kern.inst.quiesce                       0                       # number of quiesce instructions executed
system.cpu1.committedInsts                    1059756                       # Number of instructions committed
system.cpu1.committedOps                      2047160                       # Number of ops (including micro ops) committed
system.cpu1.num_int_alu_accesses              2016026                       # Number of integer alu accesses
system.cpu1.num_fp_alu_accesses                  2182                       # Number of float alu accesses
system.cpu1.num_func_calls                      43217                       # number of times a function call or return occured
system.cpu1.num_conditional_control_insts       167180                       # number of instructions that are conditional controls
system.cpu1.num_int_insts                     2016026                       # number of integer instructions
system.cpu1.num_fp_insts                         2182                       # number of float instructions
system.cpu1.num_int_register_reads            4096907                       # number of times the integer registers were read
system.cpu1.num_int_register_writes           1639531                       # number of times the integer registers were written
system.cpu1.num_fp_register_reads                3630                       # number of times the floating registers were read
system.cpu1.num_fp_register_writes               1789                       # number of times the floating registers were written
system.cpu1.num_cc_register_reads             1180629                       # number of times the CC registers were read
system.cpu1.num_cc_register_writes             683831                       # number of times the CC registers were written
system.cpu1.num_mem_refs                       466622                       # number of memory refs
system.cpu1.num_load_insts                     286590                       # Number of load instructions
system.cpu1.num_store_insts                    180032                       # Number of store instructions
system.cpu1.num_idle_cycles              918421188.328382                       # Number of idle cycles
system.cpu1.num_busy_cycles              4267217.671618                       # Number of busy cycles
system.cpu1.not_idle_fraction                0.004625                       # Percentage of non-idle cycles
system.cpu1.idle_fraction                    0.995375                       # Percentage of idle cycles
system.cpu1.Branches                           226794                       # Number of branches fetched
system.cpu1.op_class::No_OpClass                20185      0.99%      0.99% # Class of executed instruction
system.cpu1.op_class::IntAlu                  1550385     75.73%     76.72% # Class of executed instruction
system.cpu1.op_class::IntMult                    2559      0.12%     76.84% # Class of executed instruction
system.cpu1.op_class::IntDiv                     5918      0.29%     77.13% # Class of executed instruction
system.cpu1.op_class::FloatAdd                   1586      0.08%     77.21% # Class of executed instruction
system.cpu1.op_class::FloatCmp                      0      0.00%     77.21% # Class of executed instruction
system.cpu1.op_class::FloatCvt                      0      0.00%     77.21% # Class of executed instruction
system.cpu1.op_class::FloatMult                     0      0.00%     77.21% # Class of executed instruction
system.cpu1.op_class::FloatDiv                      0      0.00%     77.21% # Class of executed instruction
system.cpu1.op_class::FloatSqrt                     0      0.00%     77.21% # Class of executed instruction
system.cpu1.op_class::SimdAdd                       0      0.00%     77.21% # Class of executed instruction
system.cpu1.op_class::SimdAddAcc                    0      0.00%     77.21% # Class of executed instruction
system.cpu1.op_class::SimdAlu                       0      0.00%     77.21% # Class of executed instruction
system.cpu1.op_class::SimdCmp                       0      0.00%     77.21% # Class of executed instruction
system.cpu1.op_class::SimdCvt                       0      0.00%     77.21% # Class of executed instruction
system.cpu1.op_class::SimdMisc                      0      0.00%     77.21% # Class of executed instruction
system.cpu1.op_class::SimdMult                      0      0.00%     77.21% # Class of executed instruction
system.cpu1.op_class::SimdMultAcc                   0      0.00%     77.21% # Class of executed instruction
system.cpu1.op_class::SimdShift                     0      0.00%     77.21% # Class of executed instruction
system.cpu1.op_class::SimdShiftAcc                  0      0.00%     77.21% # Class of executed instruction
system.cpu1.op_class::SimdSqrt                      0      0.00%     77.21% # Class of executed instruction
system.cpu1.op_class::SimdFloatAdd                  0      0.00%     77.21% # Class of executed instruction
system.cpu1.op_class::SimdFloatAlu                  0      0.00%     77.21% # Class of executed instruction
system.cpu1.op_class::SimdFloatCmp                  0      0.00%     77.21% # Class of executed instruction
system.cpu1.op_class::SimdFloatCvt                  0      0.00%     77.21% # Class of executed instruction
system.cpu1.op_class::SimdFloatDiv                  0      0.00%     77.21% # Class of executed instruction
system.cpu1.op_class::SimdFloatMisc                 0      0.00%     77.21% # Class of executed instruction
system.cpu1.op_class::SimdFloatMult                 0      0.00%     77.21% # Class of executed instruction
system.cpu1.op_class::SimdFloatMultAcc              0      0.00%     77.21% # Class of executed instruction
system.cpu1.op_class::SimdFloatSqrt                 0      0.00%     77.21% # Class of executed instruction
system.cpu1.op_class::MemRead                  286590     14.00%     91.21% # Class of executed instruction
system.cpu1.op_class::MemWrite                 180032      8.79%    100.00% # Class of executed instruction
system.cpu1.op_class::IprAccess                     0      0.00%    100.00% # Class of executed instruction
system.cpu1.op_class::InstPrefetch                  0      0.00%    100.00% # Class of executed instruction
system.cpu1.op_class::total                   2047255                       # Class of executed instruction
system.cpu2.apic_clk_domain.clock                8000                       # Clock period in ticks
system.cpu2.numCycles                       927457942                       # number of cpu cycles simulated
system.cpu2.numWorkItemsStarted                     0                       # number of work items this cpu started
system.cpu2.numWorkItemsCompleted                   0                       # number of work items this cpu completed
system.cpu2.kern.inst.arm                           0                       # number of arm instructions executed
system.cpu2.kern.inst.quiesce                       0                       # number of quiesce instructions executed
system.cpu2.committedInsts                     448652                       # Number of instructions committed
system.cpu2.committedOps                       939860                       # Number of ops (including micro ops) committed
system.cpu2.num_int_alu_accesses               920558                       # Number of integer alu accesses
system.cpu2.num_fp_alu_accesses                   154                       # Number of float alu accesses
system.cpu2.num_func_calls                      24933                       # number of times a function call or return occured
system.cpu2.num_conditional_control_insts        69356                       # number of instructions that are conditional controls
system.cpu2.num_int_insts                      920558                       # number of integer instructions
system.cpu2.num_fp_insts                          154                       # number of float instructions
system.cpu2.num_int_register_reads            1866524                       # number of times the integer registers were read
system.cpu2.num_int_register_writes            756425                       # number of times the integer registers were written
system.cpu2.num_fp_register_reads                 285                       # number of times the floating registers were read
system.cpu2.num_fp_register_writes                124                       # number of times the floating registers were written
system.cpu2.num_cc_register_reads              534121                       # number of times the CC registers were read
system.cpu2.num_cc_register_writes             284778                       # number of times the CC registers were written
system.cpu2.num_mem_refs                       222518                       # number of memory refs
system.cpu2.num_load_insts                     136425                       # Number of load instructions
system.cpu2.num_store_insts                     86093                       # Number of store instructions
system.cpu2.num_idle_cycles              925516120.742640                       # Number of idle cycles
system.cpu2.num_busy_cycles              1941821.257360                       # Number of busy cycles
system.cpu2.not_idle_fraction                0.002094                       # Percentage of non-idle cycles
system.cpu2.idle_fraction                    0.997906                       # Percentage of idle cycles
system.cpu2.Branches                           102594                       # Number of branches fetched
system.cpu2.op_class::No_OpClass                15088      1.61%      1.61% # Class of executed instruction
system.cpu2.op_class::IntAlu                   695053     73.95%     75.56% # Class of executed instruction
system.cpu2.op_class::IntMult                    1998      0.21%     75.77% # Class of executed instruction
system.cpu2.op_class::IntDiv                     5144      0.55%     76.32% # Class of executed instruction
system.cpu2.op_class::FloatAdd                     87      0.01%     76.33% # Class of executed instruction
system.cpu2.op_class::FloatCmp                      0      0.00%     76.33% # Class of executed instruction
system.cpu2.op_class::FloatCvt                      0      0.00%     76.33% # Class of executed instruction
system.cpu2.op_class::FloatMult                     0      0.00%     76.33% # Class of executed instruction
system.cpu2.op_class::FloatDiv                      0      0.00%     76.33% # Class of executed instruction
system.cpu2.op_class::FloatSqrt                     0      0.00%     76.33% # Class of executed instruction
system.cpu2.op_class::SimdAdd                       0      0.00%     76.33% # Class of executed instruction
system.cpu2.op_class::SimdAddAcc                    0      0.00%     76.33% # Class of executed instruction
system.cpu2.op_class::SimdAlu                       0      0.00%     76.33% # Class of executed instruction
system.cpu2.op_class::SimdCmp                       0      0.00%     76.33% # Class of executed instruction
system.cpu2.op_class::SimdCvt                       0      0.00%     76.33% # Class of executed instruction
system.cpu2.op_class::SimdMisc                      0      0.00%     76.33% # Class of executed instruction
system.cpu2.op_class::SimdMult                      0      0.00%     76.33% # Class of executed instruction
system.cpu2.op_class::SimdMultAcc                   0      0.00%     76.33% # Class of executed instruction
system.cpu2.op_class::SimdShift                     0      0.00%     76.33% # Class of executed instruction
system.cpu2.op_class::SimdShiftAcc                  0      0.00%     76.33% # Class of executed instruction
system.cpu2.op_class::SimdSqrt                      0      0.00%     76.33% # Class of executed instruction
system.cpu2.op_class::SimdFloatAdd                  0      0.00%     76.33% # Class of executed instruction
system.cpu2.op_class::SimdFloatAlu                  0      0.00%     76.33% # Class of executed instruction
system.cpu2.op_class::SimdFloatCmp                  0      0.00%     76.33% # Class of executed instruction
system.cpu2.op_class::SimdFloatCvt                  0      0.00%     76.33% # Class of executed instruction
system.cpu2.op_class::SimdFloatDiv                  0      0.00%     76.33% # Class of executed instruction
system.cpu2.op_class::SimdFloatMisc                 0      0.00%     76.33% # Class of executed instruction
system.cpu2.op_class::SimdFloatMult                 0      0.00%     76.33% # Class of executed instruction
system.cpu2.op_class::SimdFloatMultAcc              0      0.00%     76.33% # Class of executed instruction
system.cpu2.op_class::SimdFloatSqrt                 0      0.00%     76.33% # Class of executed instruction
system.cpu2.op_class::MemRead                  136425     14.52%     90.84% # Class of executed instruction
system.cpu2.op_class::MemWrite                  86093      9.16%    100.00% # Class of executed instruction
system.cpu2.op_class::IprAccess                     0      0.00%    100.00% # Class of executed instruction
system.cpu2.op_class::InstPrefetch                  0      0.00%    100.00% # Class of executed instruction
system.cpu2.op_class::total                    939888                       # Class of executed instruction
system.cpu3.apic_clk_domain.clock                8000                       # Clock period in ticks
system.cpu3.numCycles                       926265249                       # number of cpu cycles simulated
system.cpu3.numWorkItemsStarted                     0                       # number of work items this cpu started
system.cpu3.numWorkItemsCompleted                   0                       # number of work items this cpu completed
system.cpu3.kern.inst.arm                           0                       # number of arm instructions executed
system.cpu3.kern.inst.quiesce                       0                       # number of quiesce instructions executed
system.cpu3.committedInsts                  265747750                       # Number of instructions committed
system.cpu3.committedOps                    479179454                       # Number of ops (including micro ops) committed
system.cpu3.num_int_alu_accesses            269544666                       # Number of integer alu accesses
system.cpu3.num_fp_alu_accesses             270615189                       # Number of float alu accesses
system.cpu3.num_func_calls                    9863937                       # number of times a function call or return occured
system.cpu3.num_conditional_control_insts     14997327                       # number of instructions that are conditional controls
system.cpu3.num_int_insts                   269544666                       # number of integer instructions
system.cpu3.num_fp_insts                    270615189                       # number of float instructions
system.cpu3.num_int_register_reads          512494042                       # number of times the integer registers were read
system.cpu3.num_int_register_writes         176044450                       # number of times the integer registers were written
system.cpu3.num_fp_register_reads           446719424                       # number of times the floating registers were read
system.cpu3.num_fp_register_writes          249466775                       # number of times the floating registers were written
system.cpu3.num_cc_register_reads           106898317                       # number of times the CC registers were read
system.cpu3.num_cc_register_writes           82964437                       # number of times the CC registers were written
system.cpu3.num_mem_refs                     84022506                       # number of memory refs
system.cpu3.num_load_insts                   62865128                       # Number of load instructions
system.cpu3.num_store_insts                  21157378                       # Number of store instructions
system.cpu3.num_idle_cycles              3644369.298814                       # Number of idle cycles
system.cpu3.num_busy_cycles              922620879.701186                       # Number of busy cycles
system.cpu3.not_idle_fraction                0.996066                       # Percentage of non-idle cycles
system.cpu3.idle_fraction                    0.003934                       # Percentage of idle cycles
system.cpu3.Branches                         27044390                       # Number of branches fetched
system.cpu3.op_class::No_OpClass                11115      0.00%      0.00% # Class of executed instruction
system.cpu3.op_class::IntAlu                244768873     51.08%     51.08% # Class of executed instruction
system.cpu3.op_class::IntMult                    2176      0.00%     51.08% # Class of executed instruction
system.cpu3.op_class::IntDiv                     1729      0.00%     51.08% # Class of executed instruction
system.cpu3.op_class::FloatAdd              150373151     31.38%     82.47% # Class of executed instruction
system.cpu3.op_class::FloatCmp                      0      0.00%     82.47% # Class of executed instruction
system.cpu3.op_class::FloatCvt                      0      0.00%     82.47% # Class of executed instruction
system.cpu3.op_class::FloatMult                     0      0.00%     82.47% # Class of executed instruction
system.cpu3.op_class::FloatDiv                      0      0.00%     82.47% # Class of executed instruction
system.cpu3.op_class::FloatSqrt                     0      0.00%     82.47% # Class of executed instruction
system.cpu3.op_class::SimdAdd                       0      0.00%     82.47% # Class of executed instruction
system.cpu3.op_class::SimdAddAcc                    0      0.00%     82.47% # Class of executed instruction
system.cpu3.op_class::SimdAlu                       0      0.00%     82.47% # Class of executed instruction
system.cpu3.op_class::SimdCmp                       0      0.00%     82.47% # Class of executed instruction
system.cpu3.op_class::SimdCvt                       0      0.00%     82.47% # Class of executed instruction
system.cpu3.op_class::SimdMisc                      0      0.00%     82.47% # Class of executed instruction
system.cpu3.op_class::SimdMult                      0      0.00%     82.47% # Class of executed instruction
system.cpu3.op_class::SimdMultAcc                   0      0.00%     82.47% # Class of executed instruction
system.cpu3.op_class::SimdShift                     0      0.00%     82.47% # Class of executed instruction
system.cpu3.op_class::SimdShiftAcc                  0      0.00%     82.47% # Class of executed instruction
system.cpu3.op_class::SimdSqrt                      0      0.00%     82.47% # Class of executed instruction
system.cpu3.op_class::SimdFloatAdd                  0      0.00%     82.47% # Class of executed instruction
system.cpu3.op_class::SimdFloatAlu                  0      0.00%     82.47% # Class of executed instruction
system.cpu3.op_class::SimdFloatCmp                  0      0.00%     82.47% # Class of executed instruction
system.cpu3.op_class::SimdFloatCvt                  0      0.00%     82.47% # Class of executed instruction
system.cpu3.op_class::SimdFloatDiv                  0      0.00%     82.47% # Class of executed instruction
system.cpu3.op_class::SimdFloatMisc                 0      0.00%     82.47% # Class of executed instruction
system.cpu3.op_class::SimdFloatMult                 0      0.00%     82.47% # Class of executed instruction
system.cpu3.op_class::SimdFloatMultAcc              0      0.00%     82.47% # Class of executed instruction
system.cpu3.op_class::SimdFloatSqrt                 0      0.00%     82.47% # Class of executed instruction
system.cpu3.op_class::MemRead                62865128     13.12%     95.58% # Class of executed instruction
system.cpu3.op_class::MemWrite               21157378      4.42%    100.00% # Class of executed instruction
system.cpu3.op_class::IprAccess                     0      0.00%    100.00% # Class of executed instruction
system.cpu3.op_class::InstPrefetch                  0      0.00%    100.00% # Class of executed instruction
system.cpu3.op_class::total                 479179550                       # Class of executed instruction
system.iobus.trans_dist::ReadReq                  104                       # Transaction distribution
system.iobus.trans_dist::ReadResp                 104                       # Transaction distribution
system.iobus.trans_dist::WriteReq                 575                       # Transaction distribution
system.iobus.trans_dist::WriteResp                575                       # Transaction distribution
system.iobus.trans_dist::MessageReq                18                       # Transaction distribution
system.iobus.trans_dist::MessageResp               18                       # Transaction distribution
system.iobus.pkt_count_system.pc.south_bridge.io_apic.int_master::system.ruby.l1_cntrl0.sequencer.pio-slave-port            2                       # Packet count per connected master and slave (bytes)
system.iobus.pkt_count_system.pc.south_bridge.io_apic.int_master::system.ruby.l1_cntrl1.sequencer.pio-slave-port            4                       # Packet count per connected master and slave (bytes)
system.iobus.pkt_count_system.pc.south_bridge.io_apic.int_master::system.ruby.l1_cntrl2.sequencer.pio-slave-port            4                       # Packet count per connected master and slave (bytes)
system.iobus.pkt_count_system.pc.south_bridge.io_apic.int_master::system.ruby.l1_cntrl3.sequencer.pio-slave-port            2                       # Packet count per connected master and slave (bytes)
system.iobus.pkt_count_system.pc.south_bridge.io_apic.int_master::total           12                       # Packet count per connected master and slave (bytes)
system.iobus.pkt_count_system.ruby.l1_cntrl0.sequencer.mem-master-port::system.pc.south_bridge.ide.pio           34                       # Packet count per connected master and slave (bytes)
system.iobus.pkt_count_system.ruby.l1_cntrl0.sequencer.mem-master-port::system.pc.south_bridge.io_apic.pio            6                       # Packet count per connected master and slave (bytes)
system.iobus.pkt_count_system.ruby.l1_cntrl0.sequencer.mem-master-port::system.pc.com_1.pio          174                       # Packet count per connected master and slave (bytes)
system.iobus.pkt_count_system.ruby.l1_cntrl0.sequencer.mem-master-port::system.ruby.l1_cntrl0.sequencer.pio-slave-port          248                       # Packet count per connected master and slave (bytes)
system.iobus.pkt_count_system.ruby.l1_cntrl0.sequencer.mem-master-port::system.ruby.l1_cntrl1.sequencer.pio-slave-port            2                       # Packet count per connected master and slave (bytes)
system.iobus.pkt_count_system.ruby.l1_cntrl0.sequencer.mem-master-port::total          464                       # Packet count per connected master and slave (bytes)
system.iobus.pkt_count_system.ruby.l1_cntrl1.sequencer.mem-master-port::system.pc.south_bridge.ide.pio           46                       # Packet count per connected master and slave (bytes)
system.iobus.pkt_count_system.ruby.l1_cntrl1.sequencer.mem-master-port::system.pc.south_bridge.io_apic.pio            8                       # Packet count per connected master and slave (bytes)
system.iobus.pkt_count_system.ruby.l1_cntrl1.sequencer.mem-master-port::system.ruby.l1_cntrl0.sequencer.pio-slave-port            4                       # Packet count per connected master and slave (bytes)
system.iobus.pkt_count_system.ruby.l1_cntrl1.sequencer.mem-master-port::system.ruby.l1_cntrl1.sequencer.pio-slave-port          262                       # Packet count per connected master and slave (bytes)
system.iobus.pkt_count_system.ruby.l1_cntrl1.sequencer.mem-master-port::system.ruby.l1_cntrl2.sequencer.pio-slave-port            2                       # Packet count per connected master and slave (bytes)
system.iobus.pkt_count_system.ruby.l1_cntrl1.sequencer.mem-master-port::system.ruby.l1_cntrl3.sequencer.pio-slave-port            4                       # Packet count per connected master and slave (bytes)
system.iobus.pkt_count_system.ruby.l1_cntrl1.sequencer.mem-master-port::total          326                       # Packet count per connected master and slave (bytes)
system.iobus.pkt_count_system.ruby.l1_cntrl2.sequencer.mem-master-port::system.pc.south_bridge.ide.pio           46                       # Packet count per connected master and slave (bytes)
system.iobus.pkt_count_system.ruby.l1_cntrl2.sequencer.mem-master-port::system.pc.south_bridge.io_apic.pio            8                       # Packet count per connected master and slave (bytes)
system.iobus.pkt_count_system.ruby.l1_cntrl2.sequencer.mem-master-port::system.pc.com_1.pio            2                       # Packet count per connected master and slave (bytes)
system.iobus.pkt_count_system.ruby.l1_cntrl2.sequencer.mem-master-port::system.ruby.l1_cntrl2.sequencer.pio-slave-port          248                       # Packet count per connected master and slave (bytes)
system.iobus.pkt_count_system.ruby.l1_cntrl2.sequencer.mem-master-port::system.ruby.l1_cntrl3.sequencer.pio-slave-port            2                       # Packet count per connected master and slave (bytes)
system.iobus.pkt_count_system.ruby.l1_cntrl2.sequencer.mem-master-port::total          306                       # Packet count per connected master and slave (bytes)
system.iobus.pkt_count_system.ruby.l1_cntrl3.sequencer.mem-master-port::system.pc.south_bridge.ide.pio           12                       # Packet count per connected master and slave (bytes)
system.iobus.pkt_count_system.ruby.l1_cntrl3.sequencer.mem-master-port::system.ruby.l1_cntrl0.sequencer.pio-slave-port            4                       # Packet count per connected master and slave (bytes)
system.iobus.pkt_count_system.ruby.l1_cntrl3.sequencer.mem-master-port::system.ruby.l1_cntrl1.sequencer.pio-slave-port            2                       # Packet count per connected master and slave (bytes)
system.iobus.pkt_count_system.ruby.l1_cntrl3.sequencer.mem-master-port::system.ruby.l1_cntrl2.sequencer.pio-slave-port            4                       # Packet count per connected master and slave (bytes)
system.iobus.pkt_count_system.ruby.l1_cntrl3.sequencer.mem-master-port::system.ruby.l1_cntrl3.sequencer.pio-slave-port          264                       # Packet count per connected master and slave (bytes)
system.iobus.pkt_count_system.ruby.l1_cntrl3.sequencer.mem-master-port::total          286                       # Packet count per connected master and slave (bytes)
system.iobus.pkt_count::total                    1394                       # Packet count per connected master and slave (bytes)
system.iobus.pkt_size_system.pc.south_bridge.io_apic.int_master::system.ruby.l1_cntrl0.sequencer.pio-slave-port            4                       # Cumulative packet size per connected master and slave (bytes)
system.iobus.pkt_size_system.pc.south_bridge.io_apic.int_master::system.ruby.l1_cntrl1.sequencer.pio-slave-port            8                       # Cumulative packet size per connected master and slave (bytes)
system.iobus.pkt_size_system.pc.south_bridge.io_apic.int_master::system.ruby.l1_cntrl2.sequencer.pio-slave-port            8                       # Cumulative packet size per connected master and slave (bytes)
system.iobus.pkt_size_system.pc.south_bridge.io_apic.int_master::system.ruby.l1_cntrl3.sequencer.pio-slave-port            4                       # Cumulative packet size per connected master and slave (bytes)
system.iobus.pkt_size_system.pc.south_bridge.io_apic.int_master::total           24                       # Cumulative packet size per connected master and slave (bytes)
system.iobus.pkt_size_system.ruby.l1_cntrl0.sequencer.mem-master-port::system.pc.south_bridge.ide.pio           20                       # Cumulative packet size per connected master and slave (bytes)
system.iobus.pkt_size_system.ruby.l1_cntrl0.sequencer.mem-master-port::system.pc.south_bridge.io_apic.pio           12                       # Cumulative packet size per connected master and slave (bytes)
system.iobus.pkt_size_system.ruby.l1_cntrl0.sequencer.mem-master-port::system.pc.com_1.pio           87                       # Cumulative packet size per connected master and slave (bytes)
system.iobus.pkt_size_system.ruby.l1_cntrl0.sequencer.mem-master-port::system.ruby.l1_cntrl0.sequencer.pio-slave-port          496                       # Cumulative packet size per connected master and slave (bytes)
system.iobus.pkt_size_system.ruby.l1_cntrl0.sequencer.mem-master-port::system.ruby.l1_cntrl1.sequencer.pio-slave-port            4                       # Cumulative packet size per connected master and slave (bytes)
system.iobus.pkt_size_system.ruby.l1_cntrl0.sequencer.mem-master-port::total          619                       # Cumulative packet size per connected master and slave (bytes)
system.iobus.pkt_size_system.ruby.l1_cntrl1.sequencer.mem-master-port::system.pc.south_bridge.ide.pio           26                       # Cumulative packet size per connected master and slave (bytes)
system.iobus.pkt_size_system.ruby.l1_cntrl1.sequencer.mem-master-port::system.pc.south_bridge.io_apic.pio           16                       # Cumulative packet size per connected master and slave (bytes)
system.iobus.pkt_size_system.ruby.l1_cntrl1.sequencer.mem-master-port::system.ruby.l1_cntrl0.sequencer.pio-slave-port            8                       # Cumulative packet size per connected master and slave (bytes)
system.iobus.pkt_size_system.ruby.l1_cntrl1.sequencer.mem-master-port::system.ruby.l1_cntrl1.sequencer.pio-slave-port          524                       # Cumulative packet size per connected master and slave (bytes)
system.iobus.pkt_size_system.ruby.l1_cntrl1.sequencer.mem-master-port::system.ruby.l1_cntrl2.sequencer.pio-slave-port            4                       # Cumulative packet size per connected master and slave (bytes)
system.iobus.pkt_size_system.ruby.l1_cntrl1.sequencer.mem-master-port::system.ruby.l1_cntrl3.sequencer.pio-slave-port            8                       # Cumulative packet size per connected master and slave (bytes)
system.iobus.pkt_size_system.ruby.l1_cntrl1.sequencer.mem-master-port::total          586                       # Cumulative packet size per connected master and slave (bytes)
system.iobus.pkt_size_system.ruby.l1_cntrl2.sequencer.mem-master-port::system.pc.south_bridge.ide.pio           26                       # Cumulative packet size per connected master and slave (bytes)
system.iobus.pkt_size_system.ruby.l1_cntrl2.sequencer.mem-master-port::system.pc.south_bridge.io_apic.pio           16                       # Cumulative packet size per connected master and slave (bytes)
system.iobus.pkt_size_system.ruby.l1_cntrl2.sequencer.mem-master-port::system.pc.com_1.pio            1                       # Cumulative packet size per connected master and slave (bytes)
system.iobus.pkt_size_system.ruby.l1_cntrl2.sequencer.mem-master-port::system.ruby.l1_cntrl2.sequencer.pio-slave-port          496                       # Cumulative packet size per connected master and slave (bytes)
system.iobus.pkt_size_system.ruby.l1_cntrl2.sequencer.mem-master-port::system.ruby.l1_cntrl3.sequencer.pio-slave-port            4                       # Cumulative packet size per connected master and slave (bytes)
system.iobus.pkt_size_system.ruby.l1_cntrl2.sequencer.mem-master-port::total          543                       # Cumulative packet size per connected master and slave (bytes)
system.iobus.pkt_size_system.ruby.l1_cntrl3.sequencer.mem-master-port::system.pc.south_bridge.ide.pio            6                       # Cumulative packet size per connected master and slave (bytes)
system.iobus.pkt_size_system.ruby.l1_cntrl3.sequencer.mem-master-port::system.ruby.l1_cntrl0.sequencer.pio-slave-port            8                       # Cumulative packet size per connected master and slave (bytes)
system.iobus.pkt_size_system.ruby.l1_cntrl3.sequencer.mem-master-port::system.ruby.l1_cntrl1.sequencer.pio-slave-port            4                       # Cumulative packet size per connected master and slave (bytes)
system.iobus.pkt_size_system.ruby.l1_cntrl3.sequencer.mem-master-port::system.ruby.l1_cntrl2.sequencer.pio-slave-port            8                       # Cumulative packet size per connected master and slave (bytes)
system.iobus.pkt_size_system.ruby.l1_cntrl3.sequencer.mem-master-port::system.ruby.l1_cntrl3.sequencer.pio-slave-port          528                       # Cumulative packet size per connected master and slave (bytes)
system.iobus.pkt_size_system.ruby.l1_cntrl3.sequencer.mem-master-port::total          554                       # Cumulative packet size per connected master and slave (bytes)
system.iobus.pkt_size::total                     2326                       # Cumulative packet size per connected master and slave (bytes)
system.iobus.reqLayer2.occupancy               120500                       # Layer occupancy (ticks)
system.iobus.reqLayer2.utilization                0.0                       # Layer utilization (%)
system.iobus.reqLayer8.occupancy                20497                       # Layer occupancy (ticks)
system.iobus.reqLayer8.utilization                0.0                       # Layer utilization (%)
system.iobus.reqLayer12.occupancy              113500                       # Layer occupancy (ticks)
system.iobus.reqLayer12.utilization               0.0                       # Layer utilization (%)
system.iobus.reqLayer17.occupancy              317999                       # Layer occupancy (ticks)
system.iobus.reqLayer17.utilization               0.0                       # Layer utilization (%)
system.iobus.reqLayer18.occupancy              327997                       # Layer occupancy (ticks)
system.iobus.reqLayer18.utilization               0.0                       # Layer utilization (%)
system.iobus.reqLayer19.occupancy              317498                       # Layer occupancy (ticks)
system.iobus.reqLayer19.utilization               0.0                       # Layer utilization (%)
system.iobus.reqLayer20.occupancy              295494                       # Layer occupancy (ticks)
system.iobus.reqLayer20.utilization               0.0                       # Layer utilization (%)
system.iobus.respLayer0.occupancy                8997                       # Layer occupancy (ticks)
system.iobus.respLayer0.utilization               0.0                       # Layer utilization (%)
system.iobus.respLayer2.occupancy              365000                       # Layer occupancy (ticks)
system.iobus.respLayer2.utilization               0.0                       # Layer utilization (%)
system.iobus.respLayer4.occupancy              242500                       # Layer occupancy (ticks)
system.iobus.respLayer4.utilization               0.0                       # Layer utilization (%)
system.iobus.respLayer6.occupancy              226000                       # Layer occupancy (ticks)
system.iobus.respLayer6.utilization               0.0                       # Layer utilization (%)
system.iobus.respLayer8.occupancy              217000                       # Layer occupancy (ticks)
system.iobus.respLayer8.utilization               0.0                       # Layer utilization (%)
system.pc.south_bridge.ide.disks.dma_read_full_pages            0                       # Number of full page size DMA reads (not PRD).
system.pc.south_bridge.ide.disks.dma_read_bytes            0                       # Number of bytes transfered via DMA reads (not PRD).
system.pc.south_bridge.ide.disks.dma_read_txs            0                       # Number of DMA read transactions (not PRD).
system.pc.south_bridge.ide.disks.dma_write_full_pages           45                       # Number of full page size DMA writes.
system.pc.south_bridge.ide.disks.dma_write_bytes       184320                       # Number of bytes transfered via DMA writes.
system.pc.south_bridge.ide.disks.dma_write_txs           45                       # Number of DMA write transactions.
system.ruby.clk_domain.clock                      500                       # Clock period in ticks
system.ruby.delayHist::bucket_size                  8                       # delay histogram for all message
system.ruby.delayHist::max_bucket                  79                       # delay histogram for all message
system.ruby.delayHist::samples                 865544                       # delay histogram for all message
system.ruby.delayHist::mean                  0.603131                       # delay histogram for all message
system.ruby.delayHist::stdev                 3.045108                       # delay histogram for all message
system.ruby.delayHist                    |      833253     96.27%     96.27% |         768      0.09%     96.36% |       31347      3.62%     99.98% |          81      0.01%     99.99% |          81      0.01%    100.00% |           3      0.00%    100.00% |          10      0.00%    100.00% |           1      0.00%    100.00% |           0      0.00%    100.00% |           0      0.00%    100.00% # delay histogram for all message
system.ruby.delayHist::total                   865544                       # delay histogram for all message
system.ruby.outstanding_req_hist_seqr::bucket_size            1                      
system.ruby.outstanding_req_hist_seqr::max_bucket            9                      
system.ruby.outstanding_req_hist_seqr::samples    462240650                      
system.ruby.outstanding_req_hist_seqr::mean     1.000000                      
system.ruby.outstanding_req_hist_seqr::gmean     1.000000                      
system.ruby.outstanding_req_hist_seqr::stdev     0.000250                      
system.ruby.outstanding_req_hist_seqr    |           0      0.00%      0.00% |   462240621    100.00%    100.00% |          29      0.00%    100.00% |           0      0.00%    100.00% |           0      0.00%    100.00% |           0      0.00%    100.00% |           0      0.00%    100.00% |           0      0.00%    100.00% |           0      0.00%    100.00% |           0      0.00%    100.00%
system.ruby.outstanding_req_hist_seqr::total    462240650                      
system.ruby.latency_hist_seqr::bucket_size          128                      
system.ruby.latency_hist_seqr::max_bucket         1279                      
system.ruby.latency_hist_seqr::samples      462240650                      
system.ruby.latency_hist_seqr::mean          1.008835                      
system.ruby.latency_hist_seqr::gmean         1.001281                      
system.ruby.latency_hist_seqr::stdev         0.631205                      
[...]
system.ruby.DMA_Controller.ReadRequest::total           47                      
system.ruby.DMA_Controller.WriteRequest  |        1504    100.00%    100.00% |           0      0.00%    100.00%
system.ruby.DMA_Controller.WriteRequest::total         1504                      
system.ruby.DMA_Controller.Data          |          47    100.00%    100.00% |           0      0.00%    100.00%
system.ruby.DMA_Controller.Data::total             47                      
system.ruby.DMA_Controller.Ack           |        1504    100.00%    100.00% |           0      0.00%    100.00%
system.ruby.DMA_Controller.Ack::total            1504                      
system.ruby.DMA_Controller.READY.ReadRequest |          47    100.00%    100.00% |           0      0.00%    100.00%
system.ruby.DMA_Controller.READY.ReadRequest::total           47                      
system.ruby.DMA_Controller.READY.WriteRequest |        1504    100.00%    100.00% |           0      0.00%    100.00%
system.ruby.DMA_Controller.READY.WriteRequest::total         1504                      
system.ruby.DMA_Controller.BUSY_RD.Data  |          47    100.00%    100.00% |           0      0.00%    100.00%
system.ruby.DMA_Controller.BUSY_RD.Data::total           47                      
system.ruby.DMA_Controller.BUSY_WR.Ack   |        1504    100.00%    100.00% |           0      0.00%    100.00%
system.ruby.DMA_Controller.BUSY_WR.Ack::total         1504                      
system.ruby.L1Cache_Controller.Load      |      724924      1.07%      1.07% |     3858490      5.68%      6.74% |      400798      0.59%      7.33% |    63006257     92.67%    100.00%
system.ruby.L1Cache_Controller.Load::total     67990469                      
system.ruby.L1Cache_Controller.Ifetch    |     4070162      1.01%      1.01% |    21725216      5.39%      6.40% |     1939319      0.48%      6.88% |   375510747     93.12%    100.00%
system.ruby.L1Cache_Controller.Ifetch::total    403245444                      
system.ruby.L1Cache_Controller.Store     |      580139      2.32%      2.32% |     2801023     11.22%     13.55% |      298254      1.20%     14.74% |    21278779     85.26%    100.00%
system.ruby.L1Cache_Controller.Store::total     24958195                      
system.ruby.L1Cache_Controller.Inv       |        3755     22.96%     22.96% |        5317     32.51%     55.47% |        3638     22.24%     77.71% |        3646     22.29%    100.00%
system.ruby.L1Cache_Controller.Inv::total        16356                      
system.ruby.L1Cache_Controller.L1_Replacement |       51398     13.44%     13.44% |      125533     32.82%     46.25% |       32448      8.48%     54.74% |      173140     45.26%    100.00%
system.ruby.L1Cache_Controller.L1_Replacement::total       382519                      
system.ruby.L1Cache_Controller.Fwd_GETX  |         292     17.71%     17.71% |         680     41.24%     58.94% |         327     19.83%     78.78% |         350     21.22%    100.00%
system.ruby.L1Cache_Controller.Fwd_GETX::total         1649                      
system.ruby.L1Cache_Controller.Fwd_GETS  |        1678     29.69%     29.69% |        1800     31.85%     61.54% |        1336     23.64%     85.17% |         838     14.83%    100.00%
system.ruby.L1Cache_Controller.Fwd_GETS::total         5652                      
system.ruby.L1Cache_Controller.Data      |         233     24.40%     24.40% |         257     26.91%     51.31% |         258     27.02%     78.32% |         207     21.68%    100.00%
system.ruby.L1Cache_Controller.Data::total          955                      
system.ruby.L1Cache_Controller.Data_Exclusive |       15249      9.56%      9.56% |       17331     10.86%     20.42% |        8851      5.55%     25.96% |      118157     74.04%    100.00%
system.ruby.L1Cache_Controller.Data_Exclusive::total       159588                      
system.ruby.L1Cache_Controller.DataS_fromL1 |        1231     21.78%     21.78% |        1522     26.93%     48.71% |        1496     26.47%     75.18% |        1403     24.82%    100.00%
system.ruby.L1Cache_Controller.DataS_fromL1::total         5652                      
system.ruby.L1Cache_Controller.Data_all_Acks |       35105     16.02%     16.02% |      107292     48.97%     65.00% |       23029     10.51%     75.51% |       53657     24.49%    100.00%
system.ruby.L1Cache_Controller.Data_all_Acks::total       219083                      
system.ruby.L1Cache_Controller.Ack       |        2950     45.29%     45.29% |        1436     22.05%     67.34% |        1146     17.60%     84.94% |         981     15.06%    100.00%
system.ruby.L1Cache_Controller.Ack::total         6513                      
system.ruby.L1Cache_Controller.Ack_all   |        1708     34.22%     34.22% |        1345     26.95%     61.17% |        1060     21.24%     82.41% |         878     17.59%    100.00%
system.ruby.L1Cache_Controller.Ack_all::total         4991                      
system.ruby.L1Cache_Controller.WB_Ack    |       21212     10.49%     10.49% |       27313     13.51%     24.00% |       12890      6.38%     30.37% |      140776     69.63%    100.00%
system.ruby.L1Cache_Controller.WB_Ack::total       202191                      
system.ruby.L1Cache_Controller.NP.Load   |       19388     10.31%     10.31% |       22596     12.01%     22.32% |       12230      6.50%     28.83% |      133857     71.17%    100.00%
system.ruby.L1Cache_Controller.NP.Load::total       188071                      
system.ruby.L1Cache_Controller.NP.Ifetch |       25453     17.13%     17.13% |       91811     61.78%     78.90% |       15153     10.20%     89.10% |       16202     10.90%    100.00%
system.ruby.L1Cache_Controller.NP.Ifetch::total       148619                      
system.ruby.L1Cache_Controller.NP.Store  |        6605     14.33%     14.33% |       11126     24.14%     38.47% |        5277     11.45%     49.92% |       23081     50.08%    100.00%
system.ruby.L1Cache_Controller.NP.Store::total        46089                      
system.ruby.L1Cache_Controller.NP.Inv    |        2476     25.09%     25.09% |        3225     32.68%     57.77% |        1504     15.24%     73.01% |        2664     26.99%    100.00%
system.ruby.L1Cache_Controller.NP.Inv::total         9869                      
system.ruby.L1Cache_Controller.I.Load    |         193      9.54%      9.54% |         776     38.34%     47.88% |         856     42.29%     90.17% |         199      9.83%    100.00%
system.ruby.L1Cache_Controller.I.Load::total         2024                      
system.ruby.L1Cache_Controller.I.Ifetch  |           6     15.38%     15.38% |           6     15.38%     30.77% |          14     35.90%     66.67% |          13     33.33%    100.00%
system.ruby.L1Cache_Controller.I.Ifetch::total           39                      
system.ruby.L1Cache_Controller.I.Store   |         173     39.86%     39.86% |          86     19.82%     59.68% |         103     23.73%     83.41% |          72     16.59%    100.00%
system.ruby.L1Cache_Controller.I.Store::total          434                      
system.ruby.L1Cache_Controller.I.L1_Replacement |        1210     22.25%     22.25% |        1726     31.74%     53.99% |        1589     29.22%     83.21% |         913     16.79%    100.00%
system.ruby.L1Cache_Controller.I.L1_Replacement::total         5438                      
system.ruby.L1Cache_Controller.S.Load    |       70459      0.27%      0.27% |      151664      0.59%      0.86% |       57126      0.22%      1.08% |    25593238     98.92%    100.00%
system.ruby.L1Cache_Controller.S.Load::total     25872487                      
system.ruby.L1Cache_Controller.S.Ifetch  |     4044703      1.00%      1.00% |    21633399      5.37%      6.37% |     1924151      0.48%      6.85% |   375494532     93.15%    100.00%
system.ruby.L1Cache_Controller.S.Ifetch::total    403096785                      
system.ruby.L1Cache_Controller.S.Store   |        1475     36.53%     36.53% |        1089     26.97%     63.50% |         803     19.89%     83.38% |         671     16.62%    100.00%
system.ruby.L1Cache_Controller.S.Store::total         4038                      
system.ruby.L1Cache_Controller.S.Inv     |        1094     18.65%     18.65% |        1998     34.06%     52.71% |        1966     33.52%     86.23% |         808     13.77%    100.00%
system.ruby.L1Cache_Controller.S.Inv::total         5866                      
system.ruby.L1Cache_Controller.S.L1_Replacement |       28976     16.57%     16.57% |       96494     55.17%     71.74% |       17969     10.27%     82.02% |       31451     17.98%    100.00%
system.ruby.L1Cache_Controller.S.L1_Replacement::total       174890                      
system.ruby.L1Cache_Controller.E.Load    |      175820      1.30%      1.30% |      333389      2.47%      3.77% |       86635      0.64%      4.41% |    12900981     95.59%    100.00%
system.ruby.L1Cache_Controller.E.Load::total     13496825                      
system.ruby.L1Cache_Controller.E.Store   |        6249     35.69%     35.69% |        5741     32.79%     68.47% |        2632     15.03%     83.50% |        2889     16.50%    100.00%
system.ruby.L1Cache_Controller.E.Store::total        17511                      
system.ruby.L1Cache_Controller.E.Inv     |          39     28.06%     28.06% |          12      8.63%     36.69% |          35     25.18%     61.87% |          53     38.13%    100.00%
system.ruby.L1Cache_Controller.E.Inv::total          139                      
system.ruby.L1Cache_Controller.E.L1_Replacement |        8347      5.99%      5.99% |       10672      7.66%     13.65% |        5508      3.95%     17.61% |      114782     82.39%    100.00%
system.ruby.L1Cache_Controller.E.L1_Replacement::total       139309                      
system.ruby.L1Cache_Controller.E.Fwd_GETX |         120     19.77%     19.77% |         364     59.97%     79.74% |          63     10.38%     90.12% |          60      9.88%    100.00%
system.ruby.L1Cache_Controller.E.Fwd_GETX::total          607                      
system.ruby.L1Cache_Controller.E.Fwd_GETS |         465     23.94%     23.94% |         707     36.41%     60.35% |         430     22.14%     82.49% |         340     17.51%    100.00%
system.ruby.L1Cache_Controller.E.Fwd_GETS::total         1942                      
system.ruby.L1Cache_Controller.M.Load    |      459064      1.61%      1.61% |     3350065     11.78%     13.40% |      243951      0.86%     14.26% |    24377982     85.74%    100.00%
system.ruby.L1Cache_Controller.M.Load::total     28431062                      
system.ruby.L1Cache_Controller.M.Store   |      565637      2.27%      2.27% |     2782981     11.18%     13.45% |      289439      1.16%     14.62% |    21252066     85.38%    100.00%
system.ruby.L1Cache_Controller.M.Store::total     24890123                      
system.ruby.L1Cache_Controller.M.Inv     |         146     30.42%     30.42% |          81     16.88%     47.29% |         132     27.50%     74.79% |         121     25.21%    100.00%
system.ruby.L1Cache_Controller.M.Inv::total          480                      
system.ruby.L1Cache_Controller.M.L1_Replacement |       12865     20.46%     20.46% |       16641     26.46%     46.92% |        7382     11.74%     58.66% |       25994     41.34%    100.00%
system.ruby.L1Cache_Controller.M.L1_Replacement::total        62882                      
system.ruby.L1Cache_Controller.M.Fwd_GETX |         172     16.51%     16.51% |         316     30.33%     46.83% |         264     25.34%     72.17% |         290     27.83%    100.00%
system.ruby.L1Cache_Controller.M.Fwd_GETX::total         1042                      
system.ruby.L1Cache_Controller.M.Fwd_GETS |        1213     32.70%     32.70% |        1093     29.46%     62.16% |         906     24.42%     86.58% |         498     13.42%    100.00%
system.ruby.L1Cache_Controller.M.Fwd_GETS::total         3710                      
system.ruby.L1Cache_Controller.IS.Data_Exclusive |       15249      9.56%      9.56% |       17331     10.86%     20.42% |        8851      5.55%     25.96% |      118157     74.04%    100.00%
system.ruby.L1Cache_Controller.IS.Data_Exclusive::total       159588                      
system.ruby.L1Cache_Controller.IS.DataS_fromL1 |        1231     21.78%     21.78% |        1522     26.93%     48.71% |        1496     26.47%     75.18% |        1403     24.82%    100.00%
system.ruby.L1Cache_Controller.IS.DataS_fromL1::total         5652                      
system.ruby.L1Cache_Controller.IS.Data_all_Acks |       28560     16.46%     16.46% |       96336     55.52%     71.98% |       17906     10.32%     82.30% |       30711     17.70%    100.00%
system.ruby.L1Cache_Controller.IS.Data_all_Acks::total       173513                      
system.ruby.L1Cache_Controller.IM.Data   |         233     24.40%     24.40% |         257     26.91%     51.31% |         258     27.02%     78.32% |         207     21.68%    100.00%
system.ruby.L1Cache_Controller.IM.Data::total          955                      
system.ruby.L1Cache_Controller.IM.Data_all_Acks |        6545     14.36%     14.36% |       10956     24.04%     38.40% |        5123     11.24%     49.65% |       22946     50.35%    100.00%
system.ruby.L1Cache_Controller.IM.Data_all_Acks::total        45570                      
system.ruby.L1Cache_Controller.IM.Ack    |           3     15.00%     15.00% |          10     50.00%     65.00% |           3     15.00%     80.00% |           4     20.00%    100.00%
system.ruby.L1Cache_Controller.IM.Ack::total           20                      
system.ruby.L1Cache_Controller.SM.Inv    |           0      0.00%      0.00% |           1     50.00%     50.00% |           1     50.00%    100.00% |           0      0.00%    100.00%
system.ruby.L1Cache_Controller.SM.Inv::total            2                      
system.ruby.L1Cache_Controller.SM.Ack    |        2947     45.39%     45.39% |        1426     21.96%     67.35% |        1143     17.60%     84.95% |         977     15.05%    100.00%
system.ruby.L1Cache_Controller.SM.Ack::total         6493                      
system.ruby.L1Cache_Controller.SM.Ack_all |        1708     34.22%     34.22% |        1345     26.95%     61.17% |        1060     21.24%     82.41% |         878     17.59%    100.00%
system.ruby.L1Cache_Controller.SM.Ack_all::total         4991                      
system.ruby.L1Cache_Controller.M_I.Ifetch |           0      0.00%      0.00% |           0      0.00%      0.00% |           1    100.00%    100.00% |           0      0.00%    100.00%
system.ruby.L1Cache_Controller.M_I.Ifetch::total            1                      
system.ruby.L1Cache_Controller.M_I.WB_Ack |       21212     10.49%     10.49% |       27313     13.51%     24.00% |       12890      6.38%     30.37% |      140776     69.63%    100.00%
system.ruby.L1Cache_Controller.M_I.WB_Ack::total       202191                      
system.ruby.L2Cache_Controller.L1_GET_INSTR       148658      0.00%      0.00%
system.ruby.L2Cache_Controller.L1_GETS         190157      0.00%      0.00%
system.ruby.L2Cache_Controller.L1_GETX          46530      0.00%      0.00%
system.ruby.L2Cache_Controller.L1_UPGRADE         4038      0.00%      0.00%
system.ruby.L2Cache_Controller.L1_PUTX         202191      0.00%      0.00%
system.ruby.L2Cache_Controller.L2_Replacement         8740      0.00%      0.00%
system.ruby.L2Cache_Controller.L2_Replacement_clean         8556      0.00%      0.00%
system.ruby.L2Cache_Controller.Mem_Data         25159      0.00%      0.00%
system.ruby.L2Cache_Controller.Mem_Ack          17324      0.00%      0.00%
system.ruby.L2Cache_Controller.WB_Data           4190      0.00%      0.00%
system.ruby.L2Cache_Controller.WB_Data_clean         1942      0.00%      0.00%
system.ruby.L2Cache_Controller.Ack               4108      0.00%      0.00%
system.ruby.L2Cache_Controller.Ack_all           4300      0.00%      0.00%
system.ruby.L2Cache_Controller.Unblock           5652      0.00%      0.00%
system.ruby.L2Cache_Controller.Exclusive_Unblock       210148      0.00%      0.00%
system.ruby.L2Cache_Controller.MEM_Inv             56      0.00%      0.00%
system.ruby.L2Cache_Controller.NP.L1_GET_INSTR         4950      0.00%      0.00%
system.ruby.L2Cache_Controller.NP.L1_GETS        11348      0.00%      0.00%
system.ruby.L2Cache_Controller.NP.L1_GETX         8861      0.00%      0.00%
system.ruby.L2Cache_Controller.SS.L1_GET_INSTR       143700      0.00%      0.00%
system.ruby.L2Cache_Controller.SS.L1_GETS        24855      0.00%      0.00%
system.ruby.L2Cache_Controller.SS.L1_GETX          971      0.00%      0.00%
system.ruby.L2Cache_Controller.SS.L1_UPGRADE         4036      0.00%      0.00%
system.ruby.L2Cache_Controller.SS.L2_Replacement          121      0.00%      0.00%
system.ruby.L2Cache_Controller.SS.L2_Replacement_clean         4040      0.00%      0.00%
system.ruby.L2Cache_Controller.M.L1_GET_INSTR            8      0.00%      0.00%
system.ruby.L2Cache_Controller.M.L1_GETS       148240      0.00%      0.00%
system.ruby.L2Cache_Controller.M.L1_GETX        35044      0.00%      0.00%
system.ruby.L2Cache_Controller.M.L2_Replacement         8341      0.00%      0.00%
system.ruby.L2Cache_Controller.M.L2_Replacement_clean         4181      0.00%      0.00%
system.ruby.L2Cache_Controller.M.MEM_Inv           22      0.00%      0.00%
system.ruby.L2Cache_Controller.MT.L1_GETS         5652      0.00%      0.00%
system.ruby.L2Cache_Controller.MT.L1_GETX         1649      0.00%      0.00%
system.ruby.L2Cache_Controller.MT.L1_PUTX       202191      0.00%      0.00%
system.ruby.L2Cache_Controller.MT.L2_Replacement          278      0.00%      0.00%
system.ruby.L2Cache_Controller.MT.L2_Replacement_clean          335      0.00%      0.00%
system.ruby.L2Cache_Controller.MT.MEM_Inv            6      0.00%      0.00%
system.ruby.L2Cache_Controller.M_I.Mem_Ack        17324      0.00%      0.00%
system.ruby.L2Cache_Controller.M_I.MEM_Inv           22      0.00%      0.00%
system.ruby.L2Cache_Controller.MT_I.WB_Data          243      0.00%      0.00%
system.ruby.L2Cache_Controller.MT_I.Ack_all           41      0.00%      0.00%
system.ruby.L2Cache_Controller.MT_I.MEM_Inv            6      0.00%      0.00%
system.ruby.L2Cache_Controller.MCT_I.WB_Data          237      0.00%      0.00%
system.ruby.L2Cache_Controller.MCT_I.Ack_all           98      0.00%      0.00%
system.ruby.L2Cache_Controller.I_I.Ack           3969      0.00%      0.00%
system.ruby.L2Cache_Controller.I_I.Ack_all         4040      0.00%      0.00%
system.ruby.L2Cache_Controller.S_I.Ack            139      0.00%      0.00%
system.ruby.L2Cache_Controller.S_I.Ack_all          121      0.00%      0.00%
system.ruby.L2Cache_Controller.ISS.Mem_Data        11348      0.00%      0.00%
system.ruby.L2Cache_Controller.IS.Mem_Data         4950      0.00%      0.00%
system.ruby.L2Cache_Controller.IM.Mem_Data         8861      0.00%      0.00%
system.ruby.L2Cache_Controller.SS_MB.L1_GETS           56      0.00%      0.00%
system.ruby.L2Cache_Controller.SS_MB.L1_UPGRADE            2      0.00%      0.00%
system.ruby.L2Cache_Controller.SS_MB.Exclusive_Unblock         5007      0.00%      0.00%
system.ruby.L2Cache_Controller.MT_MB.L1_GETS            1      0.00%      0.00%
system.ruby.L2Cache_Controller.MT_MB.L1_GETX            4      0.00%      0.00%
system.ruby.L2Cache_Controller.MT_MB.Exclusive_Unblock       205141      0.00%      0.00%
system.ruby.L2Cache_Controller.MT_IIB.L1_GETS            5      0.00%      0.00%
system.ruby.L2Cache_Controller.MT_IIB.L1_GETX            1      0.00%      0.00%
system.ruby.L2Cache_Controller.MT_IIB.Unblock         5652      0.00%      0.00%
system.ruby.L2Cache_Controller.MT_IB.WB_Data         3710      0.00%      0.00%
system.ruby.L2Cache_Controller.MT_IB.WB_Data_clean         1942      0.00%      0.00%

---------- End Simulation Statistics   ----------
