
---------- Begin Simulation Statistics ----------
sim_seconds                                  4.037692                       # Number of seconds simulated
sim_ticks                                4037692023000                       # Number of ticks simulated
final_tick                               55277904975501                       # Number of ticks from beginning of simulation (restored from checkpoints and never reset)
sim_freq                                 1000000000000                       # Frequency of simulated ticks
host_inst_rate                                 142454                       # Simulator instruction rate (inst/s)
host_op_rate                                   242641                       # Simulator op (including micro ops) rate (op/s)
host_tick_rate                              284488716                       # Simulator tick rate (ticks/s)
host_mem_usage                                1871416                       # Number of bytes of host memory used
host_seconds                                 14192.80                       # Real time elapsed on the host
sim_insts                                  2021819889                       # Number of instructions simulated
sim_ops                                    3443757614                       # Number of ops (including micro ops) simulated
system.voltage_domain.voltage                       1                       # Voltage in Volts
system.clk_domain.clock                          1000                       # Clock period in ticks
system.mem_ctrls0.bytes_read::ruby.dir_cntrl0    258939008                       # Number of bytes read from this memory
system.mem_ctrls0.bytes_read::total         258939008                       # Number of bytes read from this memory
system.mem_ctrls0.bytes_written::ruby.dir_cntrl0    259025280                       # Number of bytes written to this memory
system.mem_ctrls0.bytes_written::total      259025280                       # Number of bytes written to this memory
system.mem_ctrls0.num_reads::ruby.dir_cntrl0      4045922                       # Number of read requests responded to by this memory
system.mem_ctrls0.num_reads::total            4045922                       # Number of read requests responded to by this memory
system.mem_ctrls0.num_writes::ruby.dir_cntrl0      4047270                       # Number of write requests responded to by this memory
system.mem_ctrls0.num_writes::total           4047270                       # Number of write requests responded to by this memory
system.mem_ctrls0.bw_read::ruby.dir_cntrl0     64130450                       # Total read bandwidth from this memory (bytes/s)
system.mem_ctrls0.bw_read::total             64130450                       # Total read bandwidth from this memory (bytes/s)
system.mem_ctrls0.bw_write::ruby.dir_cntrl0     64151817                       # Write bandwidth from this memory (bytes/s)
system.mem_ctrls0.bw_write::total            64151817                       # Write bandwidth from this memory (bytes/s)
system.mem_ctrls0.bw_total::ruby.dir_cntrl0    128282267                       # Total bandwidth to/from this memory (bytes/s)
system.mem_ctrls0.bw_total::total           128282267                       # Total bandwidth to/from this memory (bytes/s)
system.mem_ctrls0.readReqs                    4045922                       # Number of read requests accepted
system.mem_ctrls0.writeReqs                   4047270                       # Number of write requests accepted
system.mem_ctrls0.readBursts                  4045922                       # Number of DRAM read bursts, including those serviced by the write queue
system.mem_ctrls0.writeBursts                 4047270                       # Number of DRAM write bursts, including those merged in the write queue
system.mem_ctrls0.bytesReadDRAM             228018752                       # Total number of bytes read from DRAM
system.mem_ctrls0.bytesReadWrQ               30920256                       # Total number of bytes read from write queue
system.mem_ctrls0.bytesWritten              249896064                       # Total number of bytes written to DRAM
system.mem_ctrls0.bytesReadSys              258939008                       # Total read bytes from the system interface side
system.mem_ctrls0.bytesWrittenSys           259025280                       # Total written bytes from the system interface side
system.mem_ctrls0.servicedByWrQ                483129                       # Number of DRAM read bursts serviced by the write queue
system.mem_ctrls0.mergedWrBursts               142646                       # Number of DRAM write bursts merged with an existing one
system.mem_ctrls0.neitherReadNorWriteReqs            0                       # Number of requests that are neither read nor write
system.mem_ctrls0.perBankRdBursts::0           942806                       # Per bank write bursts
system.mem_ctrls0.perBankRdBursts::1           261574                       # Per bank write bursts
system.mem_ctrls0.perBankRdBursts::2            97086                       # Per bank write bursts
system.mem_ctrls0.perBankRdBursts::3            45718                       # Per bank write bursts
system.mem_ctrls0.perBankRdBursts::4           154017                       # Per bank write bursts
system.mem_ctrls0.perBankRdBursts::5            77757                       # Per bank write bursts
system.mem_ctrls0.perBankRdBursts::6           317078                       # Per bank write bursts
system.mem_ctrls0.perBankRdBursts::7            71794                       # Per bank write bursts
system.mem_ctrls0.perBankRdBursts::8            86651                       # Per bank write bursts
system.mem_ctrls0.perBankRdBursts::9           112355                       # Per bank write bursts
system.mem_ctrls0.perBankRdBursts::10          399159                       # Per bank write bursts
system.mem_ctrls0.perBankRdBursts::11           51313                       # Per bank write bursts
system.mem_ctrls0.perBankRdBursts::12          157289                       # Per bank write bursts
system.mem_ctrls0.perBankRdBursts::13          238902                       # Per bank write bursts
system.mem_ctrls0.perBankRdBursts::14          342319                       # Per bank write bursts
system.mem_ctrls0.perBankRdBursts::15          206975                       # Per bank write bursts
system.mem_ctrls0.perBankWrBursts::0          1057509                       # Per bank write bursts
system.mem_ctrls0.perBankWrBursts::1           277585                       # Per bank write bursts
system.mem_ctrls0.perBankWrBursts::2           100570                       # Per bank write bursts
system.mem_ctrls0.perBankWrBursts::3            46942                       # Per bank write bursts
system.mem_ctrls0.perBankWrBursts::4           171330                       # Per bank write bursts
system.mem_ctrls0.perBankWrBursts::5            82260                       # Per bank write bursts
system.mem_ctrls0.perBankWrBursts::6           367434                       # Per bank write bursts
system.mem_ctrls0.perBankWrBursts::7            75072                       # Per bank write bursts
system.mem_ctrls0.perBankWrBursts::8            95133                       # Per bank write bursts
system.mem_ctrls0.perBankWrBursts::9           120556                       # Per bank write bursts
system.mem_ctrls0.perBankWrBursts::10          432243                       # Per bank write bursts
system.mem_ctrls0.perBankWrBursts::11           57388                       # Per bank write bursts
system.mem_ctrls0.perBankWrBursts::12          170914                       # Per bank write bursts
system.mem_ctrls0.perBankWrBursts::13          257042                       # Per bank write bursts
system.mem_ctrls0.perBankWrBursts::14          373643                       # Per bank write bursts
system.mem_ctrls0.perBankWrBursts::15          219005                       # Per bank write bursts
system.mem_ctrls0.numRdRetry                        0                       # Number of times read queue was full causing retry
system.mem_ctrls0.numWrRetry                        0                       # Number of times write queue was full causing retry
system.mem_ctrls0.totGap                 4037691973500                       # Total gap between requests
system.mem_ctrls0.readPktSize::0                    0                       # Read request sizes (log2)
system.mem_ctrls0.readPktSize::1                    0                       # Read request sizes (log2)
system.mem_ctrls0.readPktSize::2                    0                       # Read request sizes (log2)
system.mem_ctrls0.readPktSize::3                    0                       # Read request sizes (log2)
system.mem_ctrls0.readPktSize::4                    0                       # Read request sizes (log2)
system.mem_ctrls0.readPktSize::5                    0                       # Read request sizes (log2)
system.mem_ctrls0.readPktSize::6              4045922                       # Read request sizes (log2)
system.mem_ctrls0.writePktSize::0                   0                       # Write request sizes (log2)
system.mem_ctrls0.writePktSize::1                   0                       # Write request sizes (log2)
system.mem_ctrls0.writePktSize::2                   0                       # Write request sizes (log2)
system.mem_ctrls0.writePktSize::3                   0                       # Write request sizes (log2)
system.mem_ctrls0.writePktSize::4                   0                       # Write request sizes (log2)
system.mem_ctrls0.writePktSize::5                   0                       # Write request sizes (log2)
system.mem_ctrls0.writePktSize::6             4047270                       # Write request sizes (log2)
system.mem_ctrls0.rdQLenPdf::0                3556545                       # What read queue length does an incoming req see
system.mem_ctrls0.rdQLenPdf::1                   6230                       # What read queue length does an incoming req see
system.mem_ctrls0.rdQLenPdf::2                     18                       # What read queue length does an incoming req see
system.mem_ctrls0.rdQLenPdf::3                      0                       # What read queue length does an incoming req see
system.mem_ctrls0.rdQLenPdf::4                      0                       # What read queue length does an incoming req see
system.mem_ctrls0.rdQLenPdf::5                      0                       # What read queue length does an incoming req see
system.mem_ctrls0.rdQLenPdf::6                      0                       # What read queue length does an incoming req see
system.mem_ctrls0.rdQLenPdf::7                      0                       # What read queue length does an incoming req see
system.mem_ctrls0.rdQLenPdf::8                      0                       # What read queue length does an incoming req see
system.mem_ctrls0.rdQLenPdf::9                      0                       # What read queue length does an incoming req see
system.mem_ctrls0.rdQLenPdf::10                     0                       # What read queue length does an incoming req see
system.mem_ctrls0.rdQLenPdf::11                     0                       # What read queue length does an incoming req see
system.mem_ctrls0.rdQLenPdf::12                     0                       # What read queue length does an incoming req see
system.mem_ctrls0.rdQLenPdf::13                     0                       # What read queue length does an incoming req see
system.mem_ctrls0.rdQLenPdf::14                     0                       # What read queue length does an incoming req see
system.mem_ctrls0.rdQLenPdf::15                     0                       # What read queue length does an incoming req see
system.mem_ctrls0.rdQLenPdf::16                     0                       # What read queue length does an incoming req see
system.mem_ctrls0.rdQLenPdf::17                     0                       # What read queue length does an incoming req see
system.mem_ctrls0.rdQLenPdf::18                     0                       # What read queue length does an incoming req see
system.mem_ctrls0.rdQLenPdf::19                     0                       # What read queue length does an incoming req see
system.mem_ctrls0.rdQLenPdf::20                     0                       # What read queue length does an incoming req see
system.mem_ctrls0.rdQLenPdf::21                     0                       # What read queue length does an incoming req see
system.mem_ctrls0.rdQLenPdf::22                     0                       # What read queue length does an incoming req see
system.mem_ctrls0.rdQLenPdf::23                     0                       # What read queue length does an incoming req see
system.mem_ctrls0.rdQLenPdf::24                     0                       # What read queue length does an incoming req see
system.mem_ctrls0.rdQLenPdf::25                     0                       # What read queue length does an incoming req see
system.mem_ctrls0.rdQLenPdf::26                     0                       # What read queue length does an incoming req see
system.mem_ctrls0.rdQLenPdf::27                     0                       # What read queue length does an incoming req see
system.mem_ctrls0.rdQLenPdf::28                     0                       # What read queue length does an incoming req see
system.mem_ctrls0.rdQLenPdf::29                     0                       # What read queue length does an incoming req see
system.mem_ctrls0.rdQLenPdf::30                     0                       # What read queue length does an incoming req see
system.mem_ctrls0.rdQLenPdf::31                     0                       # What read queue length does an incoming req see
system.mem_ctrls0.wrQLenPdf::0                      0                       # What write queue length does an incoming req see
system.mem_ctrls0.wrQLenPdf::1                      0                       # What write queue length does an incoming req see
system.mem_ctrls0.wrQLenPdf::2                      0                       # What write queue length does an incoming req see
system.mem_ctrls0.wrQLenPdf::3                      0                       # What write queue length does an incoming req see
system.mem_ctrls0.wrQLenPdf::4                      0                       # What write queue length does an incoming req see
system.mem_ctrls0.wrQLenPdf::5                      0                       # What write queue length does an incoming req see
system.mem_ctrls0.wrQLenPdf::6                      0                       # What write queue length does an incoming req see
system.mem_ctrls0.wrQLenPdf::7                      0                       # What write queue length does an incoming req see
system.mem_ctrls0.wrQLenPdf::8                      0                       # What write queue length does an incoming req see
system.mem_ctrls0.wrQLenPdf::9                      0                       # What write queue length does an incoming req see
system.mem_ctrls0.wrQLenPdf::10                     0                       # What write queue length does an incoming req see
system.mem_ctrls0.wrQLenPdf::11                     0                       # What write queue length does an incoming req see
system.mem_ctrls0.wrQLenPdf::12                     0                       # What write queue length does an incoming req see
system.mem_ctrls0.wrQLenPdf::13                     0                       # What write queue length does an incoming req see
system.mem_ctrls0.wrQLenPdf::14                     0                       # What write queue length does an incoming req see
system.mem_ctrls0.wrQLenPdf::15                 24829                       # What write queue length does an incoming req see
system.mem_ctrls0.wrQLenPdf::16                 26008                       # What write queue length does an incoming req see
system.mem_ctrls0.wrQLenPdf::17                236309                       # What write queue length does an incoming req see
system.mem_ctrls0.wrQLenPdf::18                241256                       # What write queue length does an incoming req see
system.mem_ctrls0.wrQLenPdf::19                241519                       # What write queue length does an incoming req see
system.mem_ctrls0.wrQLenPdf::20                241263                       # What write queue length does an incoming req see
system.mem_ctrls0.wrQLenPdf::21                241585                       # What write queue length does an incoming req see
system.mem_ctrls0.wrQLenPdf::22                241824                       # What write queue length does an incoming req see
system.mem_ctrls0.wrQLenPdf::23                241591                       # What write queue length does an incoming req see
system.mem_ctrls0.wrQLenPdf::24                241768                       # What write queue length does an incoming req see
system.mem_ctrls0.wrQLenPdf::25                241258                       # What write queue length does an incoming req see
system.mem_ctrls0.wrQLenPdf::26                240850                       # What write queue length does an incoming req see
system.mem_ctrls0.wrQLenPdf::27                240737                       # What write queue length does an incoming req see
system.mem_ctrls0.wrQLenPdf::28                240714                       # What write queue length does an incoming req see
system.mem_ctrls0.wrQLenPdf::29                240704                       # What write queue length does an incoming req see
system.mem_ctrls0.wrQLenPdf::30                240682                       # What write queue length does an incoming req see
system.mem_ctrls0.wrQLenPdf::31                240679                       # What write queue length does an incoming req see
system.mem_ctrls0.wrQLenPdf::32                240677                       # What write queue length does an incoming req see
system.mem_ctrls0.wrQLenPdf::33                   302                       # What write queue length does an incoming req see
system.mem_ctrls0.wrQLenPdf::34                    55                       # What write queue length does an incoming req see
system.mem_ctrls0.wrQLenPdf::35                    12                       # What write queue length does an incoming req see
system.mem_ctrls0.wrQLenPdf::36                     2                       # What write queue length does an incoming req see
system.mem_ctrls0.wrQLenPdf::37                     0                       # What write queue length does an incoming req see
system.mem_ctrls0.wrQLenPdf::38                     0                       # What write queue length does an incoming req see
system.mem_ctrls0.wrQLenPdf::39                     0                       # What write queue length does an incoming req see
system.mem_ctrls0.wrQLenPdf::40                     0                       # What write queue length does an incoming req see
system.mem_ctrls0.wrQLenPdf::41                     0                       # What write queue length does an incoming req see
system.mem_ctrls0.wrQLenPdf::42                     0                       # What write queue length does an incoming req see
system.mem_ctrls0.wrQLenPdf::43                     0                       # What write queue length does an incoming req see
system.mem_ctrls0.wrQLenPdf::44                     0                       # What write queue length does an incoming req see
system.mem_ctrls0.wrQLenPdf::45                     0                       # What write queue length does an incoming req see
system.mem_ctrls0.wrQLenPdf::46                     0                       # What write queue length does an incoming req see
system.mem_ctrls0.wrQLenPdf::47                     0                       # What write queue length does an incoming req see
system.mem_ctrls0.wrQLenPdf::48                     0                       # What write queue length does an incoming req see
system.mem_ctrls0.wrQLenPdf::49                     0                       # What write queue length does an incoming req see
system.mem_ctrls0.wrQLenPdf::50                     0                       # What write queue length does an incoming req see
system.mem_ctrls0.wrQLenPdf::51                     0                       # What write queue length does an incoming req see
system.mem_ctrls0.wrQLenPdf::52                     0                       # What write queue length does an incoming req see
system.mem_ctrls0.wrQLenPdf::53                     0                       # What write queue length does an incoming req see
system.mem_ctrls0.wrQLenPdf::54                     0                       # What write queue length does an incoming req see
system.mem_ctrls0.wrQLenPdf::55                     0                       # What write queue length does an incoming req see
system.mem_ctrls0.wrQLenPdf::56                     0                       # What write queue length does an incoming req see
system.mem_ctrls0.wrQLenPdf::57                     0                       # What write queue length does an incoming req see
system.mem_ctrls0.wrQLenPdf::58                     0                       # What write queue length does an incoming req see
system.mem_ctrls0.wrQLenPdf::59                     0                       # What write queue length does an incoming req see
system.mem_ctrls0.wrQLenPdf::60                     0                       # What write queue length does an incoming req see
system.mem_ctrls0.wrQLenPdf::61                     0                       # What write queue length does an incoming req see
system.mem_ctrls0.wrQLenPdf::62                     0                       # What write queue length does an incoming req see
system.mem_ctrls0.wrQLenPdf::63                     0                       # What write queue length does an incoming req see
system.mem_ctrls0.bytesPerActivate::samples      2791306                       # Bytes accessed per row activation
system.mem_ctrls0.bytesPerActivate::mean   171.215602                       # Bytes accessed per row activation
system.mem_ctrls0.bytesPerActivate::gmean   126.169137                       # Bytes accessed per row activation
system.mem_ctrls0.bytesPerActivate::stdev   164.075160                       # Bytes accessed per row activation
system.mem_ctrls0.bytesPerActivate::0-127      1232627     44.16%     44.16% # Bytes accessed per row activation
system.mem_ctrls0.bytesPerActivate::128-255       923722     33.09%     77.25% # Bytes accessed per row activation
system.mem_ctrls0.bytesPerActivate::256-383       340018     12.18%     89.43% # Bytes accessed per row activation
system.mem_ctrls0.bytesPerActivate::384-511       138739      4.97%     94.40% # Bytes accessed per row activation
system.mem_ctrls0.bytesPerActivate::512-639        67968      2.43%     96.84% # Bytes accessed per row activation
system.mem_ctrls0.bytesPerActivate::640-767        35457      1.27%     98.11% # Bytes accessed per row activation
system.mem_ctrls0.bytesPerActivate::768-895        20823      0.75%     98.86% # Bytes accessed per row activation
system.mem_ctrls0.bytesPerActivate::896-1023        12763      0.46%     99.31% # Bytes accessed per row activation
system.mem_ctrls0.bytesPerActivate::1024-1151        19189      0.69%    100.00% # Bytes accessed per row activation
system.mem_ctrls0.bytesPerActivate::total      2791306                       # Bytes accessed per row activation
system.mem_ctrls0.rdPerTurnAround::samples       240672                       # Reads before turning the bus around for writes
system.mem_ctrls0.rdPerTurnAround::mean     14.803529                       # Reads before turning the bus around for writes
system.mem_ctrls0.rdPerTurnAround::stdev     3.746747                       # Reads before turning the bus around for writes
system.mem_ctrls0.rdPerTurnAround::0-3            467      0.19%      0.19% # Reads before turning the bus around for writes
system.mem_ctrls0.rdPerTurnAround::4-7           2988      1.24%      1.44% # Reads before turning the bus around for writes
system.mem_ctrls0.rdPerTurnAround::8-11         19728      8.20%      9.63% # Reads before turning the bus around for writes
system.mem_ctrls0.rdPerTurnAround::12-15       104831     43.56%     53.19% # Reads before turning the bus around for writes
system.mem_ctrls0.rdPerTurnAround::16-19       110120     45.76%     98.95% # Reads before turning the bus around for writes
system.mem_ctrls0.rdPerTurnAround::20-23         1006      0.42%     99.36% # Reads before turning the bus around for writes
system.mem_ctrls0.rdPerTurnAround::24-27          264      0.11%     99.47% # Reads before turning the bus around for writes
system.mem_ctrls0.rdPerTurnAround::28-31          111      0.05%     99.52% # Reads before turning the bus around for writes
system.mem_ctrls0.rdPerTurnAround::32-35          118      0.05%     99.57% # Reads before turning the bus around for writes
system.mem_ctrls0.rdPerTurnAround::36-39           87      0.04%     99.60% # Reads before turning the bus around for writes
system.mem_ctrls0.rdPerTurnAround::40-43           69      0.03%     99.63% # Reads before turning the bus around for writes
system.mem_ctrls0.rdPerTurnAround::44-47           50      0.02%     99.65% # Reads before turning the bus around for writes
system.mem_ctrls0.rdPerTurnAround::48-51           58      0.02%     99.68% # Reads before turning the bus around for writes
system.mem_ctrls0.rdPerTurnAround::52-55           69      0.03%     99.71% # Reads before turning the bus around for writes
system.mem_ctrls0.rdPerTurnAround::56-59          120      0.05%     99.76% # Reads before turning the bus around for writes
system.mem_ctrls0.rdPerTurnAround::60-63          196      0.08%     99.84% # Reads before turning the bus around for writes
system.mem_ctrls0.rdPerTurnAround::64-67          238      0.10%     99.94% # Reads before turning the bus around for writes
system.mem_ctrls0.rdPerTurnAround::68-71          120      0.05%     99.99% # Reads before turning the bus around for writes
system.mem_ctrls0.rdPerTurnAround::72-75           21      0.01%    100.00% # Reads before turning the bus around for writes
system.mem_ctrls0.rdPerTurnAround::76-79            3      0.00%    100.00% # Reads before turning the bus around for writes
system.mem_ctrls0.rdPerTurnAround::80-83            2      0.00%    100.00% # Reads before turning the bus around for writes
system.mem_ctrls0.rdPerTurnAround::84-87            1      0.00%    100.00% # Reads before turning the bus around for writes
system.mem_ctrls0.rdPerTurnAround::88-91            3      0.00%    100.00% # Reads before turning the bus around for writes
system.mem_ctrls0.rdPerTurnAround::92-95            2      0.00%    100.00% # Reads before turning the bus around for writes
system.mem_ctrls0.rdPerTurnAround::total       240672                       # Reads before turning the bus around for writes
system.mem_ctrls0.wrPerTurnAround::samples       240672                       # Writes before turning the bus around for reads
system.mem_ctrls0.wrPerTurnAround::mean     16.223848                       # Writes before turning the bus around for reads
system.mem_ctrls0.wrPerTurnAround::gmean    16.211386                       # Writes before turning the bus around for reads
system.mem_ctrls0.wrPerTurnAround::stdev     0.658898                       # Writes before turning the bus around for reads
system.mem_ctrls0.wrPerTurnAround::16          214913     89.30%     89.30% # Writes before turning the bus around for reads
system.mem_ctrls0.wrPerTurnAround::17             471      0.20%     89.49% # Writes before turning the bus around for reads
system.mem_ctrls0.wrPerTurnAround::18           22760      9.46%     98.95% # Writes before turning the bus around for reads
system.mem_ctrls0.wrPerTurnAround::19            2298      0.95%     99.90% # Writes before turning the bus around for reads
system.mem_ctrls0.wrPerTurnAround::20             181      0.08%     99.98% # Writes before turning the bus around for reads
system.mem_ctrls0.wrPerTurnAround::21              34      0.01%     99.99% # Writes before turning the bus around for reads
system.mem_ctrls0.wrPerTurnAround::22              11      0.00%    100.00% # Writes before turning the bus around for reads
system.mem_ctrls0.wrPerTurnAround::23               3      0.00%    100.00% # Writes before turning the bus around for reads
system.mem_ctrls0.wrPerTurnAround::24               1      0.00%    100.00% # Writes before turning the bus around for reads
system.mem_ctrls0.wrPerTurnAround::total       240672                       # Writes before turning the bus around for reads
system.mem_ctrls0.totQLat                 58714261675                       # Total ticks spent queuing
system.mem_ctrls0.totMemAccLat           125516630425                       # Total ticks spent from burst creation until serviced by the DRAM
system.mem_ctrls0.totBusLat               17813965000                       # Total ticks spent in databus transfers
system.mem_ctrls0.avgQLat                    16479.84                       # Average queueing delay per DRAM burst
system.mem_ctrls0.avgBusLat                   5000.00                       # Average bus latency per DRAM burst
system.mem_ctrls0.avgMemAccLat               35229.84                       # Average memory access latency per DRAM burst
system.mem_ctrls0.avgRdBW                       56.47                       # Average DRAM read bandwidth in MiByte/s
system.mem_ctrls0.avgWrBW                       61.89                       # Average achieved write bandwidth in MiByte/s
system.mem_ctrls0.avgRdBWSys                    64.13                       # Average system read bandwidth in MiByte/s
system.mem_ctrls0.avgWrBWSys                    64.15                       # Average system write bandwidth in MiByte/s
system.mem_ctrls0.peakBW                     12800.00                       # Theoretical peak bandwidth in MiByte/s
system.mem_ctrls0.busUtil                        0.92                       # Data bus utilization in percentage
system.mem_ctrls0.busUtilRead                    0.44                       # Data bus utilization in percentage for reads
system.mem_ctrls0.busUtilWrite                   0.48                       # Data bus utilization in percentage for writes
system.mem_ctrls0.avgRdQLen                      1.00                       # Average read queue length when enqueuing
system.mem_ctrls0.avgWrQLen                     25.42                       # Average write queue length when enqueuing
system.mem_ctrls0.readRowHits                 2091222                       # Number of row buffer hits during reads
system.mem_ctrls0.writeRowHits                2584892                       # Number of row buffer hits during writes
system.mem_ctrls0.readRowHitRate                58.70                       # Row buffer hit rate for reads
system.mem_ctrls0.writeRowHitRate               66.20                       # Row buffer hit rate for writes
system.mem_ctrls0.avgGap                    498899.81                       # Average gap between requests
system.mem_ctrls0.pageHitRate                   62.62                       # Row buffer hit rate, read and write combined
system.mem_ctrls0_0.actEnergy             11695637520                       # Energy for activate commands per rank (pJ)
system.mem_ctrls0_0.preEnergy              6381548250                       # Energy for precharge commands per rank (pJ)
system.mem_ctrls0_0.readEnergy            15426637200                       # Energy for read commands per rank (pJ)
system.mem_ctrls0_0.writeEnergy           14182419600                       # Energy for write commands per rank (pJ)
system.mem_ctrls0_0.refreshEnergy        264050963280                       # Energy for refresh commands per rank (pJ)
system.mem_ctrls0_0.actBackEnergy        1396023257700                       # Energy for active background per rank (pJ)
system.mem_ctrls0_0.preBackEnergy        1201051699500                       # Energy for precharge background per rank (pJ)
system.mem_ctrls0_0.totalEnergy          2908812163050                       # Total energy per rank (pJ)
system.mem_ctrls0_0.averagePower           719.518136                       # Core power per rank (mW)
system.mem_ctrls0_0.memoryStateTime::IDLE 1988558261250                       # Time in different power states
system.mem_ctrls0_0.memoryStateTime::REF 134827420000                       # Time in different power states
system.mem_ctrls0_0.memoryStateTime::PRE_PDN            0                       # Time in different power states
system.mem_ctrls0_0.memoryStateTime::ACT 1914307752250                       # Time in different power states
system.mem_ctrls0_0.memoryStateTime::ACT_PDN            0                       # Time in different power states
system.mem_ctrls0_1.actEnergy              9560096280                       # Energy for activate commands per rank (pJ)
system.mem_ctrls0_1.preEnergy              5216322375                       # Energy for precharge commands per rank (pJ)
system.mem_ctrls0_1.readEnergy            12524382000                       # Energy for read commands per rank (pJ)
system.mem_ctrls0_1.writeEnergy           11253155040                       # Energy for write commands per rank (pJ)
system.mem_ctrls0_1.refreshEnergy        264050963280                       # Energy for refresh commands per rank (pJ)
system.mem_ctrls0_1.actBackEnergy        998515450440                       # Energy for active background per rank (pJ)
system.mem_ctrls0_1.preBackEnergy        1549742742750                       # Energy for precharge background per rank (pJ)
system.mem_ctrls0_1.totalEnergy          2850863112165                       # Total energy per rank (pJ)
system.mem_ctrls0_1.averagePower           705.183976                       # Core power per rank (mW)
system.mem_ctrls0_1.memoryStateTime::IDLE 2571319114004                       # Time in different power states
system.mem_ctrls0_1.memoryStateTime::REF 134827420000                       # Time in different power states
system.mem_ctrls0_1.memoryStateTime::PRE_PDN            0                       # Time in different power states
system.mem_ctrls0_1.memoryStateTime::ACT 1331546504746                       # Time in different power states
system.mem_ctrls0_1.memoryStateTime::ACT_PDN            0                       # Time in different power states
system.mem_ctrls1.bytes_read::ruby.dir_cntrl1    243205248                       # Number of bytes read from this memory
system.mem_ctrls1.bytes_read::total         243205248                       # Number of bytes read from this memory
system.mem_ctrls1.bytes_written::ruby.dir_cntrl1    243291392                       # Number of bytes written to this memory
system.mem_ctrls1.bytes_written::total      243291392                       # Number of bytes written to this memory
system.mem_ctrls1.num_reads::ruby.dir_cntrl1      3800082                       # Number of read requests responded to by this memory
system.mem_ctrls1.num_reads::total            3800082                       # Number of read requests responded to by this memory
system.mem_ctrls1.num_writes::ruby.dir_cntrl1      3801428                       # Number of write requests responded to by this memory
system.mem_ctrls1.num_writes::total           3801428                       # Number of write requests responded to by this memory
system.mem_ctrls1.bw_read::ruby.dir_cntrl1     60233729                       # Total read bandwidth from this memory (bytes/s)
system.mem_ctrls1.bw_read::total             60233729                       # Total read bandwidth from this memory (bytes/s)
system.mem_ctrls1.bw_write::ruby.dir_cntrl1     60255064                       # Write bandwidth from this memory (bytes/s)
system.mem_ctrls1.bw_write::total            60255064                       # Write bandwidth from this memory (bytes/s)
system.mem_ctrls1.bw_total::ruby.dir_cntrl1    120488793                       # Total bandwidth to/from this memory (bytes/s)
system.mem_ctrls1.bw_total::total           120488793                       # Total bandwidth to/from this memory (bytes/s)
system.mem_ctrls1.readReqs                    3800082                       # Number of read requests accepted
system.mem_ctrls1.writeReqs                   3801428                       # Number of write requests accepted
system.mem_ctrls1.readBursts                  3800082                       # Number of DRAM read bursts, including those serviced by the write queue
system.mem_ctrls1.writeBursts                 3801428                       # Number of DRAM write bursts, including those merged in the write queue
system.mem_ctrls1.bytesReadDRAM             212878720                       # Total number of bytes read from DRAM
system.mem_ctrls1.bytesReadWrQ               30326528                       # Total number of bytes read from write queue
system.mem_ctrls1.bytesWritten              235369088                       # Total number of bytes written to DRAM
system.mem_ctrls1.bytesReadSys              243205248                       # Total read bytes from the system interface side
system.mem_ctrls1.bytesWrittenSys           243291392                       # Total written bytes from the system interface side
system.mem_ctrls1.servicedByWrQ                473852                       # Number of DRAM read bursts serviced by the write queue
system.mem_ctrls1.mergedWrBursts               123777                       # Number of DRAM write bursts merged with an existing one
system.mem_ctrls1.neitherReadNorWriteReqs            0                       # Number of requests that are neither read nor write
system.mem_ctrls1.perBankRdBursts::0           844447                       # Per bank write bursts
system.mem_ctrls1.perBankRdBursts::1           248121                       # Per bank write bursts
system.mem_ctrls1.perBankRdBursts::2            80033                       # Per bank write bursts
system.mem_ctrls1.perBankRdBursts::3            44587                       # Per bank write bursts
system.mem_ctrls1.perBankRdBursts::4           143193                       # Per bank write bursts
system.mem_ctrls1.perBankRdBursts::5            72731                       # Per bank write bursts
system.mem_ctrls1.perBankRdBursts::6           286622                       # Per bank write bursts
system.mem_ctrls1.perBankRdBursts::7           105508                       # Per bank write bursts
system.mem_ctrls1.perBankRdBursts::8            82310                       # Per bank write bursts
system.mem_ctrls1.perBankRdBursts::9           101545                       # Per bank write bursts
system.mem_ctrls1.perBankRdBursts::10          333418                       # Per bank write bursts
system.mem_ctrls1.perBankRdBursts::11           52263                       # Per bank write bursts
system.mem_ctrls1.perBankRdBursts::12          163472                       # Per bank write bursts
system.mem_ctrls1.perBankRdBursts::13          234800                       # Per bank write bursts
system.mem_ctrls1.perBankRdBursts::14          317019                       # Per bank write bursts
system.mem_ctrls1.perBankRdBursts::15          216161                       # Per bank write bursts
system.mem_ctrls1.perBankWrBursts::0           940364                       # Per bank write bursts
system.mem_ctrls1.perBankWrBursts::1           265265                       # Per bank write bursts
system.mem_ctrls1.perBankWrBursts::2            84434                       # Per bank write bursts
system.mem_ctrls1.perBankWrBursts::3            46869                       # Per bank write bursts
system.mem_ctrls1.perBankWrBursts::4           161261                       # Per bank write bursts
system.mem_ctrls1.perBankWrBursts::5            76394                       # Per bank write bursts
system.mem_ctrls1.perBankWrBursts::6           339536                       # Per bank write bursts
system.mem_ctrls1.perBankWrBursts::7           112184                       # Per bank write bursts
system.mem_ctrls1.perBankWrBursts::8            93103                       # Per bank write bursts
system.mem_ctrls1.perBankWrBursts::9           106676                       # Per bank write bursts
system.mem_ctrls1.perBankWrBursts::10          367128                       # Per bank write bursts
system.mem_ctrls1.perBankWrBursts::11           59182                       # Per bank write bursts
system.mem_ctrls1.perBankWrBursts::12          182626                       # Per bank write bursts
system.mem_ctrls1.perBankWrBursts::13          255495                       # Per bank write bursts
system.mem_ctrls1.perBankWrBursts::14          360727                       # Per bank write bursts
system.mem_ctrls1.perBankWrBursts::15          226398                       # Per bank write bursts
system.mem_ctrls1.numRdRetry                        0                       # Number of times read queue was full causing retry
system.mem_ctrls1.numWrRetry                        0                       # Number of times write queue was full causing retry
system.mem_ctrls1.totGap                 4037692096500                       # Total gap between requests
system.mem_ctrls1.readPktSize::0                    0                       # Read request sizes (log2)
system.mem_ctrls1.readPktSize::1                    0                       # Read request sizes (log2)
system.mem_ctrls1.readPktSize::2                    0                       # Read request sizes (log2)
system.mem_ctrls1.readPktSize::3                    0                       # Read request sizes (log2)
system.mem_ctrls1.readPktSize::4                    0                       # Read request sizes (log2)
system.mem_ctrls1.readPktSize::5                    0                       # Read request sizes (log2)
system.mem_ctrls1.readPktSize::6              3800082                       # Read request sizes (log2)
system.mem_ctrls1.writePktSize::0                   0                       # Write request sizes (log2)
system.mem_ctrls1.writePktSize::1                   0                       # Write request sizes (log2)
system.mem_ctrls1.writePktSize::2                   0                       # Write request sizes (log2)
system.mem_ctrls1.writePktSize::3                   0                       # Write request sizes (log2)
system.mem_ctrls1.writePktSize::4                   0                       # Write request sizes (log2)
system.mem_ctrls1.writePktSize::5                   0                       # Write request sizes (log2)
system.mem_ctrls1.writePktSize::6             3801428                       # Write request sizes (log2)
system.mem_ctrls1.rdQLenPdf::0                3320811                       # What read queue length does an incoming req see
system.mem_ctrls1.rdQLenPdf::1                   5417                       # What read queue length does an incoming req see
system.mem_ctrls1.rdQLenPdf::2                      2                       # What read queue length does an incoming req see
system.mem_ctrls1.rdQLenPdf::3                      0                       # What read queue length does an incoming req see
system.mem_ctrls1.rdQLenPdf::4                      0                       # What read queue length does an incoming req see
system.mem_ctrls1.rdQLenPdf::5                      0                       # What read queue length does an incoming req see
system.mem_ctrls1.rdQLenPdf::6                      0                       # What read queue length does an incoming req see
system.mem_ctrls1.rdQLenPdf::7                      0                       # What read queue length does an incoming req see
system.mem_ctrls1.rdQLenPdf::8                      0                       # What read queue length does an incoming req see
system.mem_ctrls1.rdQLenPdf::9                      0                       # What read queue length does an incoming req see
system.mem_ctrls1.rdQLenPdf::10                     0                       # What read queue length does an incoming req see
system.mem_ctrls1.rdQLenPdf::11                     0                       # What read queue length does an incoming req see
system.mem_ctrls1.rdQLenPdf::12                     0                       # What read queue length does an incoming req see
system.mem_ctrls1.rdQLenPdf::13                     0                       # What read queue length does an incoming req see
system.mem_ctrls1.rdQLenPdf::14                     0                       # What read queue length does an incoming req see
system.mem_ctrls1.rdQLenPdf::15                     0                       # What read queue length does an incoming req see
system.mem_ctrls1.rdQLenPdf::16                     0                       # What read queue length does an incoming req see
system.mem_ctrls1.rdQLenPdf::17                     0                       # What read queue length does an incoming req see
system.mem_ctrls1.rdQLenPdf::18                     0                       # What read queue length does an incoming req see
system.mem_ctrls1.rdQLenPdf::19                     0                       # What read queue length does an incoming req see
system.mem_ctrls1.rdQLenPdf::20                     0                       # What read queue length does an incoming req see
system.mem_ctrls1.rdQLenPdf::21                     0                       # What read queue length does an incoming req see
system.mem_ctrls1.rdQLenPdf::22                     0                       # What read queue length does an incoming req see
system.mem_ctrls1.rdQLenPdf::23                     0                       # What read queue length does an incoming req see
system.mem_ctrls1.rdQLenPdf::24                     0                       # What read queue length does an incoming req see
system.mem_ctrls1.rdQLenPdf::25                     0                       # What read queue length does an incoming req see
system.mem_ctrls1.rdQLenPdf::26                     0                       # What read queue length does an incoming req see
system.mem_ctrls1.rdQLenPdf::27                     0                       # What read queue length does an incoming req see
system.mem_ctrls1.rdQLenPdf::28                     0                       # What read queue length does an incoming req see
system.mem_ctrls1.rdQLenPdf::29                     0                       # What read queue length does an incoming req see
system.mem_ctrls1.rdQLenPdf::30                     0                       # What read queue length does an incoming req see
system.mem_ctrls1.rdQLenPdf::31                     0                       # What read queue length does an incoming req see
system.mem_ctrls1.wrQLenPdf::0                      0                       # What write queue length does an incoming req see
system.mem_ctrls1.wrQLenPdf::1                      0                       # What write queue length does an incoming req see
system.mem_ctrls1.wrQLenPdf::2                      0                       # What write queue length does an incoming req see
system.mem_ctrls1.wrQLenPdf::3                      0                       # What write queue length does an incoming req see
system.mem_ctrls1.wrQLenPdf::4                      0                       # What write queue length does an incoming req see
system.mem_ctrls1.wrQLenPdf::5                      0                       # What write queue length does an incoming req see
system.mem_ctrls1.wrQLenPdf::6                      0                       # What write queue length does an incoming req see
system.mem_ctrls1.wrQLenPdf::7                      0                       # What write queue length does an incoming req see
system.mem_ctrls1.wrQLenPdf::8                      0                       # What write queue length does an incoming req see
system.mem_ctrls1.wrQLenPdf::9                      0                       # What write queue length does an incoming req see
system.mem_ctrls1.wrQLenPdf::10                     0                       # What write queue length does an incoming req see
system.mem_ctrls1.wrQLenPdf::11                     0                       # What write queue length does an incoming req see
system.mem_ctrls1.wrQLenPdf::12                     0                       # What write queue length does an incoming req see
system.mem_ctrls1.wrQLenPdf::13                     0                       # What write queue length does an incoming req see
system.mem_ctrls1.wrQLenPdf::14                     0                       # What write queue length does an incoming req see
system.mem_ctrls1.wrQLenPdf::15                 24752                       # What write queue length does an incoming req see
system.mem_ctrls1.wrQLenPdf::16                 25939                       # What write queue length does an incoming req see
system.mem_ctrls1.wrQLenPdf::17                222967                       # What write queue length does an incoming req see
system.mem_ctrls1.wrQLenPdf::18                227079                       # What write queue length does an incoming req see
system.mem_ctrls1.wrQLenPdf::19                227372                       # What write queue length does an incoming req see
system.mem_ctrls1.wrQLenPdf::20                227152                       # What write queue length does an incoming req see
system.mem_ctrls1.wrQLenPdf::21                227348                       # What write queue length does an incoming req see
system.mem_ctrls1.wrQLenPdf::22                227489                       # What write queue length does an incoming req see
system.mem_ctrls1.wrQLenPdf::23                227484                       # What write queue length does an incoming req see
system.mem_ctrls1.wrQLenPdf::24                227031                       # What write queue length does an incoming req see
system.mem_ctrls1.wrQLenPdf::25                227026                       # What write queue length does an incoming req see
system.mem_ctrls1.wrQLenPdf::26                226705                       # What write queue length does an incoming req see
system.mem_ctrls1.wrQLenPdf::27                226531                       # What write queue length does an incoming req see
system.mem_ctrls1.wrQLenPdf::28                226504                       # What write queue length does an incoming req see
system.mem_ctrls1.wrQLenPdf::29                226502                       # What write queue length does an incoming req see
system.mem_ctrls1.wrQLenPdf::30                226485                       # What write queue length does an incoming req see
system.mem_ctrls1.wrQLenPdf::31                226474                       # What write queue length does an incoming req see
system.mem_ctrls1.wrQLenPdf::32                226473                       # What write queue length does an incoming req see
system.mem_ctrls1.wrQLenPdf::33                   268                       # What write queue length does an incoming req see
system.mem_ctrls1.wrQLenPdf::34                    60                       # What write queue length does an incoming req see
system.mem_ctrls1.wrQLenPdf::35                     7                       # What write queue length does an incoming req see
system.mem_ctrls1.wrQLenPdf::36                     2                       # What write queue length does an incoming req see
system.mem_ctrls1.wrQLenPdf::37                     1                       # What write queue length does an incoming req see
system.mem_ctrls1.wrQLenPdf::38                     0                       # What write queue length does an incoming req see
system.mem_ctrls1.wrQLenPdf::39                     0                       # What write queue length does an incoming req see
system.mem_ctrls1.wrQLenPdf::40                     0                       # What write queue length does an incoming req see
system.mem_ctrls1.wrQLenPdf::41                     0                       # What write queue length does an incoming req see
system.mem_ctrls1.wrQLenPdf::42                     0                       # What write queue length does an incoming req see
system.mem_ctrls1.wrQLenPdf::43                     0                       # What write queue length does an incoming req see
system.mem_ctrls1.wrQLenPdf::44                     0                       # What write queue length does an incoming req see
system.mem_ctrls1.wrQLenPdf::45                     0                       # What write queue length does an incoming req see
system.mem_ctrls1.wrQLenPdf::46                     0                       # What write queue length does an incoming req see
system.mem_ctrls1.wrQLenPdf::47                     0                       # What write queue length does an incoming req see
system.mem_ctrls1.wrQLenPdf::48                     0                       # What write queue length does an incoming req see
system.mem_ctrls1.wrQLenPdf::49                     0                       # What write queue length does an incoming req see
system.mem_ctrls1.wrQLenPdf::50                     0                       # What write queue length does an incoming req see
system.mem_ctrls1.wrQLenPdf::51                     0                       # What write queue length does an incoming req see
system.mem_ctrls1.wrQLenPdf::52                     0                       # What write queue length does an incoming req see
system.mem_ctrls1.wrQLenPdf::53                     0                       # What write queue length does an incoming req see
system.mem_ctrls1.wrQLenPdf::54                     0                       # What write queue length does an incoming req see
system.mem_ctrls1.wrQLenPdf::55                     0                       # What write queue length does an incoming req see
system.mem_ctrls1.wrQLenPdf::56                     0                       # What write queue length does an incoming req see
system.mem_ctrls1.wrQLenPdf::57                     0                       # What write queue length does an incoming req see
system.mem_ctrls1.wrQLenPdf::58                     0                       # What write queue length does an incoming req see
system.mem_ctrls1.wrQLenPdf::59                     0                       # What write queue length does an incoming req see
system.mem_ctrls1.wrQLenPdf::60                     0                       # What write queue length does an incoming req see
system.mem_ctrls1.wrQLenPdf::61                     0                       # What write queue length does an incoming req see
system.mem_ctrls1.wrQLenPdf::62                     0                       # What write queue length does an incoming req see
system.mem_ctrls1.wrQLenPdf::63                     0                       # What write queue length does an incoming req see
system.mem_ctrls1.bytesPerActivate::samples      2585282                       # Bytes accessed per row activation
system.mem_ctrls1.bytesPerActivate::mean   173.384567                       # Bytes accessed per row activation
system.mem_ctrls1.bytesPerActivate::gmean   127.456727                       # Bytes accessed per row activation
system.mem_ctrls1.bytesPerActivate::stdev   164.795228                       # Bytes accessed per row activation
system.mem_ctrls1.bytesPerActivate::0-127      1141351     44.15%     44.15% # Bytes accessed per row activation
system.mem_ctrls1.bytesPerActivate::128-255       827241     32.00%     76.15% # Bytes accessed per row activation
system.mem_ctrls1.bytesPerActivate::256-383       336131     13.00%     89.15% # Bytes accessed per row activation
system.mem_ctrls1.bytesPerActivate::384-511       136978      5.30%     94.45% # Bytes accessed per row activation
system.mem_ctrls1.bytesPerActivate::512-639        61599      2.38%     96.83% # Bytes accessed per row activation
system.mem_ctrls1.bytesPerActivate::640-767        33416      1.29%     98.12% # Bytes accessed per row activation
system.mem_ctrls1.bytesPerActivate::768-895        19398      0.75%     98.87% # Bytes accessed per row activation
system.mem_ctrls1.bytesPerActivate::896-1023        10965      0.42%     99.30% # Bytes accessed per row activation
system.mem_ctrls1.bytesPerActivate::1024-1151        18203      0.70%    100.00% # Bytes accessed per row activation
system.mem_ctrls1.bytesPerActivate::total      2585282                       # Bytes accessed per row activation
system.mem_ctrls1.rdPerTurnAround::samples       226473                       # Reads before turning the bus around for writes
system.mem_ctrls1.rdPerTurnAround::mean     14.687058                       # Reads before turning the bus around for writes
system.mem_ctrls1.rdPerTurnAround::stdev     3.772720                       # Reads before turning the bus around for writes
system.mem_ctrls1.rdPerTurnAround::0-3            470      0.21%      0.21% # Reads before turning the bus around for writes
system.mem_ctrls1.rdPerTurnAround::4-7           3330      1.47%      1.68% # Reads before turning the bus around for writes
system.mem_ctrls1.rdPerTurnAround::8-11         19218      8.49%     10.16% # Reads before turning the bus around for writes
system.mem_ctrls1.rdPerTurnAround::12-15       102170     45.11%     55.28% # Reads before turning the bus around for writes
system.mem_ctrls1.rdPerTurnAround::16-19        99056     43.74%     99.02% # Reads before turning the bus around for writes
system.mem_ctrls1.rdPerTurnAround::20-23          810      0.36%     99.37% # Reads before turning the bus around for writes
system.mem_ctrls1.rdPerTurnAround::24-27          181      0.08%     99.45% # Reads before turning the bus around for writes
system.mem_ctrls1.rdPerTurnAround::28-31          115      0.05%     99.50% # Reads before turning the bus around for writes
system.mem_ctrls1.rdPerTurnAround::32-35           84      0.04%     99.54% # Reads before turning the bus around for writes
system.mem_ctrls1.rdPerTurnAround::36-39           66      0.03%     99.57% # Reads before turning the bus around for writes
system.mem_ctrls1.rdPerTurnAround::40-43           69      0.03%     99.60% # Reads before turning the bus around for writes
system.mem_ctrls1.rdPerTurnAround::44-47           61      0.03%     99.63% # Reads before turning the bus around for writes
system.mem_ctrls1.rdPerTurnAround::48-51           96      0.04%     99.67% # Reads before turning the bus around for writes
system.mem_ctrls1.rdPerTurnAround::52-55          108      0.05%     99.72% # Reads before turning the bus around for writes
system.mem_ctrls1.rdPerTurnAround::56-59          173      0.08%     99.79% # Reads before turning the bus around for writes
system.mem_ctrls1.rdPerTurnAround::60-63          155      0.07%     99.86% # Reads before turning the bus around for writes
system.mem_ctrls1.rdPerTurnAround::64-67          196      0.09%     99.95% # Reads before turning the bus around for writes
system.mem_ctrls1.rdPerTurnAround::68-71           83      0.04%     99.99% # Reads before turning the bus around for writes
system.mem_ctrls1.rdPerTurnAround::72-75           23      0.01%    100.00% # Reads before turning the bus around for writes
system.mem_ctrls1.rdPerTurnAround::76-79            3      0.00%    100.00% # Reads before turning the bus around for writes
system.mem_ctrls1.rdPerTurnAround::80-83            2      0.00%    100.00% # Reads before turning the bus around for writes
system.mem_ctrls1.rdPerTurnAround::84-87            1      0.00%    100.00% # Reads before turning the bus around for writes
system.mem_ctrls1.rdPerTurnAround::88-91            1      0.00%    100.00% # Reads before turning the bus around for writes
system.mem_ctrls1.rdPerTurnAround::96-99            1      0.00%    100.00% # Reads before turning the bus around for writes
system.mem_ctrls1.rdPerTurnAround::104-107            1      0.00%    100.00% # Reads before turning the bus around for writes
system.mem_ctrls1.rdPerTurnAround::total       226473                       # Reads before turning the bus around for writes
system.mem_ctrls1.wrPerTurnAround::samples       226473                       # Writes before turning the bus around for reads
system.mem_ctrls1.wrPerTurnAround::mean     16.238766                       # Writes before turning the bus around for reads
system.mem_ctrls1.wrPerTurnAround::gmean    16.225549                       # Writes before turning the bus around for reads
system.mem_ctrls1.wrPerTurnAround::stdev     0.678454                       # Writes before turning the bus around for reads
system.mem_ctrls1.wrPerTurnAround::16          200694     88.62%     88.62% # Writes before turning the bus around for reads
system.mem_ctrls1.wrPerTurnAround::17             438      0.19%     88.81% # Writes before turning the bus around for reads
system.mem_ctrls1.wrPerTurnAround::18           22582      9.97%     98.78% # Writes before turning the bus around for reads
system.mem_ctrls1.wrPerTurnAround::19            2609      1.15%     99.93% # Writes before turning the bus around for reads
system.mem_ctrls1.wrPerTurnAround::20             121      0.05%     99.99% # Writes before turning the bus around for reads
system.mem_ctrls1.wrPerTurnAround::21              21      0.01%    100.00% # Writes before turning the bus around for reads
system.mem_ctrls1.wrPerTurnAround::22               7      0.00%    100.00% # Writes before turning the bus around for reads
system.mem_ctrls1.wrPerTurnAround::30               1      0.00%    100.00% # Writes before turning the bus around for reads
system.mem_ctrls1.wrPerTurnAround::total       226473                       # Writes before turning the bus around for reads
system.mem_ctrls1.totQLat                 54047960192                       # Total ticks spent queuing
system.mem_ctrls1.totMemAccLat           116414772692                       # Total ticks spent from burst creation until serviced by the DRAM
system.mem_ctrls1.totBusLat               16631150000                       # Total ticks spent in databus transfers
system.mem_ctrls1.avgQLat                    16249.01                       # Average queueing delay per DRAM burst
system.mem_ctrls1.avgBusLat                   5000.00                       # Average bus latency per DRAM burst
system.mem_ctrls1.avgMemAccLat               34999.01                       # Average memory access latency per DRAM burst
system.mem_ctrls1.avgRdBW                       52.72                       # Average DRAM read bandwidth in MiByte/s
system.mem_ctrls1.avgWrBW                       58.29                       # Average achieved write bandwidth in MiByte/s
system.mem_ctrls1.avgRdBWSys                    60.23                       # Average system read bandwidth in MiByte/s
system.mem_ctrls1.avgWrBWSys                    60.26                       # Average system write bandwidth in MiByte/s
system.mem_ctrls1.peakBW                     12800.00                       # Theoretical peak bandwidth in MiByte/s
system.mem_ctrls1.busUtil                        0.87                       # Data bus utilization in percentage
system.mem_ctrls1.busUtilRead                    0.41                       # Data bus utilization in percentage for reads
system.mem_ctrls1.busUtilWrite                   0.46                       # Data bus utilization in percentage for writes
system.mem_ctrls1.avgRdQLen                      1.00                       # Average read queue length when enqueuing
system.mem_ctrls1.avgWrQLen                     25.37                       # Average write queue length when enqueuing
system.mem_ctrls1.readRowHits                 1958492                       # Number of row buffer hits during reads
system.mem_ctrls1.writeRowHits                2460103                       # Number of row buffer hits during writes
system.mem_ctrls1.readRowHitRate                58.88                       # Row buffer hit rate for reads
system.mem_ctrls1.writeRowHitRate               66.89                       # Row buffer hit rate for writes
system.mem_ctrls1.avgGap                    531169.74                       # Average gap between requests
system.mem_ctrls1.pageHitRate                   63.09                       # Row buffer hit rate, read and write combined
system.mem_ctrls1_0.actEnergy             10804736880                       # Energy for activate commands per rank (pJ)
system.mem_ctrls1_0.preEnergy              5895441750                       # Energy for precharge commands per rank (pJ)
system.mem_ctrls1_0.readEnergy            14312937600                       # Energy for read commands per rank (pJ)
system.mem_ctrls1_0.writeEnergy           13193383680                       # Energy for write commands per rank (pJ)
system.mem_ctrls1_0.refreshEnergy        264050963280                       # Energy for refresh commands per rank (pJ)
system.mem_ctrls1_0.actBackEnergy        1348710030360                       # Energy for active background per rank (pJ)
system.mem_ctrls1_0.preBackEnergy        1242554514750                       # Energy for precharge background per rank (pJ)
system.mem_ctrls1_0.totalEnergy          2899522008300                       # Total energy per rank (pJ)
system.mem_ctrls1_0.averagePower           717.220146                       # Core power per rank (mW)
system.mem_ctrls1_0.memoryStateTime::IDLE 2057838674003                       # Time in different power states
system.mem_ctrls1_0.memoryStateTime::REF 134827420000                       # Time in different power states
system.mem_ctrls1_0.memoryStateTime::PRE_PDN            0                       # Time in different power states
system.mem_ctrls1_0.memoryStateTime::ACT 1845026503497                       # Time in different power states
system.mem_ctrls1_0.memoryStateTime::ACT_PDN            0                       # Time in different power states
system.mem_ctrls1_1.actEnergy              8887006800                       # Energy for activate commands per rank (pJ)
system.mem_ctrls1_1.preEnergy              4849061250                       # Energy for precharge commands per rank (pJ)
system.mem_ctrls1_1.readEnergy            11788920000                       # Energy for read commands per rank (pJ)
system.mem_ctrls1_1.writeEnergy           10767446640                       # Energy for write commands per rank (pJ)
system.mem_ctrls1_1.refreshEnergy        264050963280                       # Energy for refresh commands per rank (pJ)
system.mem_ctrls1_1.actBackEnergy        945519360435                       # Energy for active background per rank (pJ)
system.mem_ctrls1_1.preBackEnergy        1596230541000                       # Energy for precharge background per rank (pJ)
system.mem_ctrls1_1.totalEnergy          2842093299405                       # Total energy per rank (pJ)
system.mem_ctrls1_1.averagePower           703.014692                       # Core power per rank (mW)
system.mem_ctrls1_1.memoryStateTime::IDLE 2649009843250                       # Time in different power states
system.mem_ctrls1_1.memoryStateTime::REF 134827420000                       # Time in different power states
system.mem_ctrls1_1.memoryStateTime::PRE_PDN            0                       # Time in different power states
system.mem_ctrls1_1.memoryStateTime::ACT 1253853228750                       # Time in different power states
system.mem_ctrls1_1.memoryStateTime::ACT_PDN            0                       # Time in different power states
system.cpu_voltage_domain.voltage                   1                       # Voltage in Volts
system.cpu_clk_domain.clock                       500                       # Clock period in ticks
system.cpu0.apic_clk_domain.clock                8000                       # Clock period in ticks
system.cpu0.numCycles                      8075071015                       # number of cpu cycles simulated
system.cpu0.numWorkItemsStarted                     0                       # number of work items this cpu started
system.cpu0.numWorkItemsCompleted                   0                       # number of work items this cpu completed
system.cpu0.kern.inst.arm                           0                       # number of arm instructions executed
system.cpu0.kern.inst.quiesce                       0                       # number of quiesce instructions executed
system.cpu0.committedInsts                   19869620                       # Number of instructions committed
system.cpu0.committedOps                     35369326                       # Number of ops (including micro ops) committed
system.cpu0.num_int_alu_accesses             29952922                       # Number of integer alu accesses
system.cpu0.num_fp_alu_accesses               8399337                       # Number of float alu accesses
system.cpu0.num_func_calls                     634863                       # number of times a function call or return occured
system.cpu0.num_conditional_control_insts      2106690                       # number of instructions that are conditional controls
system.cpu0.num_int_insts                    29952922                       # number of integer instructions
system.cpu0.num_fp_insts                      8399337                       # number of float instructions
system.cpu0.num_int_register_reads           57898903                       # number of times the integer registers were read
system.cpu0.num_int_register_writes          22854455                       # number of times the integer registers were written
system.cpu0.num_fp_register_reads            14064330                       # number of times the floating registers were read
system.cpu0.num_fp_register_writes            7474281                       # number of times the floating registers were written
system.cpu0.num_cc_register_reads            14586250                       # number of times the CC registers were read
system.cpu0.num_cc_register_writes           10672239                       # number of times the CC registers were written
system.cpu0.num_mem_refs                      7924767                       # number of memory refs
system.cpu0.num_load_insts                    5862309                       # Number of load instructions
system.cpu0.num_store_insts                   2062458                       # Number of store instructions
system.cpu0.num_idle_cycles              7980190892.040236                       # Number of idle cycles
system.cpu0.num_busy_cycles              94880122.959763                       # Number of busy cycles
system.cpu0.not_idle_fraction                0.011750                       # Percentage of non-idle cycles
system.cpu0.idle_fraction                    0.988250                       # Percentage of idle cycles
system.cpu0.Branches                          2904305                       # Number of branches fetched
system.cpu0.op_class::No_OpClass               134249      0.38%      0.38% # Class of executed instruction
system.cpu0.op_class::IntAlu                 23434443     66.26%     66.64% # Class of executed instruction
system.cpu0.op_class::IntMult                  215113      0.61%     67.24% # Class of executed instruction
system.cpu0.op_class::IntDiv                    42591      0.12%     67.36% # Class of executed instruction
system.cpu0.op_class::FloatAdd                3618219     10.23%     77.59% # Class of executed instruction
system.cpu0.op_class::FloatCmp                      0      0.00%     77.59% # Class of executed instruction
system.cpu0.op_class::FloatCvt                      0      0.00%     77.59% # Class of executed instruction
system.cpu0.op_class::FloatMult                     0      0.00%     77.59% # Class of executed instruction
system.cpu0.op_class::FloatDiv                      0      0.00%     77.59% # Class of executed instruction
system.cpu0.op_class::FloatSqrt                     0      0.00%     77.59% # Class of executed instruction
system.cpu0.op_class::SimdAdd                       0      0.00%     77.59% # Class of executed instruction
system.cpu0.op_class::SimdAddAcc                    0      0.00%     77.59% # Class of executed instruction
system.cpu0.op_class::SimdAlu                       0      0.00%     77.59% # Class of executed instruction
system.cpu0.op_class::SimdCmp                       0      0.00%     77.59% # Class of executed instruction
system.cpu0.op_class::SimdCvt                       0      0.00%     77.59% # Class of executed instruction
system.cpu0.op_class::SimdMisc                      0      0.00%     77.59% # Class of executed instruction
system.cpu0.op_class::SimdMult                      0      0.00%     77.59% # Class of executed instruction
system.cpu0.op_class::SimdMultAcc                   0      0.00%     77.59% # Class of executed instruction
system.cpu0.op_class::SimdShift                     0      0.00%     77.59% # Class of executed instruction
system.cpu0.op_class::SimdShiftAcc                  0      0.00%     77.59% # Class of executed instruction
system.cpu0.op_class::SimdSqrt                      0      0.00%     77.59% # Class of executed instruction
system.cpu0.op_class::SimdFloatAdd                  0      0.00%     77.59% # Class of executed instruction
system.cpu0.op_class::SimdFloatAlu                  0      0.00%     77.59% # Class of executed instruction
system.cpu0.op_class::SimdFloatCmp                  0      0.00%     77.59% # Class of executed instruction
system.cpu0.op_class::SimdFloatCvt                  0      0.00%     77.59% # Class of executed instruction
system.cpu0.op_class::SimdFloatDiv                  0      0.00%     77.59% # Class of executed instruction
system.cpu0.op_class::SimdFloatMisc                 0      0.00%     77.59% # Class of executed instruction
system.cpu0.op_class::SimdFloatMult                 0      0.00%     77.59% # Class of executed instruction
system.cpu0.op_class::SimdFloatMultAcc              0      0.00%     77.59% # Class of executed instruction
system.cpu0.op_class::SimdFloatSqrt                 0      0.00%     77.59% # Class of executed instruction
system.cpu0.op_class::MemRead                 5862309     16.57%     94.17% # Class of executed instruction
system.cpu0.op_class::MemWrite                2062458      5.83%    100.00% # Class of executed instruction
system.cpu0.op_class::IprAccess                     0      0.00%    100.00% # Class of executed instruction
system.cpu0.op_class::InstPrefetch                  0      0.00%    100.00% # Class of executed instruction
system.cpu0.op_class::total                  35369382                       # Class of executed instruction
system.cpu1.apic_clk_domain.clock                8000                       # Clock period in ticks
system.cpu1.numCycles                      8077962166                       # number of cpu cycles simulated
system.cpu1.numWorkItemsStarted                     0                       # number of work items this cpu started
system.cpu1.numWorkItemsCompleted                   0                       # number of work items this cpu completed
system.cpu1.kern.inst.arm                           0                       # number of arm instructions executed
system.cpu1.kern.inst.quiesce                       0                       # number of quiesce instructions executed
system.cpu1.committedInsts                 1994148423                       # Number of instructions committed
system.cpu1.committedOps                   3392249443                       # Number of ops (including micro ops) committed
system.cpu1.num_int_alu_accesses           2756907891                       # Number of integer alu accesses
system.cpu1.num_fp_alu_accesses            1010088517                       # Number of float alu accesses
system.cpu1.num_func_calls                   49916549                       # number of times a function call or return occured
system.cpu1.num_conditional_control_insts    199788781                       # number of instructions that are conditional controls
system.cpu1.num_int_insts                  2756907891                       # number of integer instructions
system.cpu1.num_fp_insts                   1010088517                       # number of float instructions
system.cpu1.num_int_register_reads         5216988316                       # number of times the integer registers were read
system.cpu1.num_int_register_writes        2052067915                       # number of times the integer registers were written
system.cpu1.num_fp_register_reads          1701898740                       # number of times the floating registers were read
system.cpu1.num_fp_register_writes          899765659                       # number of times the floating registers were written
system.cpu1.num_cc_register_reads          1288319220                       # number of times the CC registers were read
system.cpu1.num_cc_register_writes         1039154557                       # number of times the CC registers were written
system.cpu1.num_mem_refs                    738098019                       # number of memory refs
system.cpu1.num_load_insts                  571724807                       # Number of load instructions
system.cpu1.num_store_insts                 166373212                       # Number of store instructions
system.cpu1.num_idle_cycles              74356870.348389                       # Number of idle cycles
system.cpu1.num_busy_cycles              8003605295.651611                       # Number of busy cycles
system.cpu1.not_idle_fraction                0.990795                       # Percentage of non-idle cycles
system.cpu1.idle_fraction                    0.009205                       # Percentage of idle cycles
system.cpu1.Branches                        261111600                       # Number of branches fetched
system.cpu1.op_class::No_OpClass              1507662      0.04%      0.04% # Class of executed instruction
system.cpu1.op_class::IntAlu               2188773396     64.52%     64.57% # Class of executed instruction
system.cpu1.op_class::IntMult                24040853      0.71%     65.28% # Class of executed instruction
system.cpu1.op_class::IntDiv                   210301      0.01%     65.28% # Class of executed instruction
system.cpu1.op_class::FloatAdd              439619365     12.96%     78.24% # Class of executed instruction
system.cpu1.op_class::FloatCmp                      0      0.00%     78.24% # Class of executed instruction
system.cpu1.op_class::FloatCvt                      0      0.00%     78.24% # Class of executed instruction
system.cpu1.op_class::FloatMult                     0      0.00%     78.24% # Class of executed instruction
system.cpu1.op_class::FloatDiv                      0      0.00%     78.24% # Class of executed instruction
system.cpu1.op_class::FloatSqrt                     0      0.00%     78.24% # Class of executed instruction
system.cpu1.op_class::SimdAdd                       0      0.00%     78.24% # Class of executed instruction
system.cpu1.op_class::SimdAddAcc                    0      0.00%     78.24% # Class of executed instruction
system.cpu1.op_class::SimdAlu                       0      0.00%     78.24% # Class of executed instruction
system.cpu1.op_class::SimdCmp                       0      0.00%     78.24% # Class of executed instruction
system.cpu1.op_class::SimdCvt                       0      0.00%     78.24% # Class of executed instruction
system.cpu1.op_class::SimdMisc                      0      0.00%     78.24% # Class of executed instruction
[...]
system.ruby.IFETCH.L1Cache.miss_type_mach_latency_hist_seqr |           0      0.00%      0.00% |     1296268    100.00%    100.00% |           3      0.00%    100.00% |           2      0.00%    100.00% |           1      0.00%    100.00% |           1      0.00%    100.00% |           0      0.00%    100.00% |           0      0.00%    100.00% |           0      0.00%    100.00% |           0      0.00%    100.00%
system.ruby.IFETCH.L1Cache.miss_type_mach_latency_hist_seqr::total      1296275                      
system.ruby.IFETCH.Directory.miss_type_mach_latency_hist_seqr::bucket_size          128                      
system.ruby.IFETCH.Directory.miss_type_mach_latency_hist_seqr::max_bucket         1279                      
system.ruby.IFETCH.Directory.miss_type_mach_latency_hist_seqr::samples      5474108                      
system.ruby.IFETCH.Directory.miss_type_mach_latency_hist_seqr::mean   120.492076                      
system.ruby.IFETCH.Directory.miss_type_mach_latency_hist_seqr::gmean   106.283070                      
system.ruby.IFETCH.Directory.miss_type_mach_latency_hist_seqr::stdev    75.887157                      
system.ruby.IFETCH.Directory.miss_type_mach_latency_hist_seqr |     4598379     84.00%     84.00% |      538141      9.83%     93.83% |      248730      4.54%     98.38% |       40407      0.74%     99.11% |       35710      0.65%     99.77% |       10309      0.19%     99.96% |        1130      0.02%     99.98% |        1122      0.02%    100.00% |         172      0.00%    100.00% |           8      0.00%    100.00%
system.ruby.IFETCH.Directory.miss_type_mach_latency_hist_seqr::total      5474108                      
system.ruby.RMW_Read.L1Cache.miss_type_mach_latency_hist_seqr::bucket_size            8                      
system.ruby.RMW_Read.L1Cache.miss_type_mach_latency_hist_seqr::max_bucket           79                      
system.ruby.RMW_Read.L1Cache.miss_type_mach_latency_hist_seqr::samples         3426                      
system.ruby.RMW_Read.L1Cache.miss_type_mach_latency_hist_seqr::mean    45.281378                      
system.ruby.RMW_Read.L1Cache.miss_type_mach_latency_hist_seqr::gmean    45.266166                      
system.ruby.RMW_Read.L1Cache.miss_type_mach_latency_hist_seqr::stdev     1.244521                      
system.ruby.RMW_Read.L1Cache.miss_type_mach_latency_hist_seqr |           0      0.00%      0.00% |           0      0.00%      0.00% |           0      0.00%      0.00% |           0      0.00%      0.00% |           0      0.00%      0.00% |        3244     94.69%     94.69% |         175      5.11%     99.80% |           5      0.15%     99.94% |           2      0.06%    100.00% |           0      0.00%    100.00%
system.ruby.RMW_Read.L1Cache.miss_type_mach_latency_hist_seqr::total         3426                      
system.ruby.RMW_Read.Directory.miss_type_mach_latency_hist_seqr::bucket_size          128                      
system.ruby.RMW_Read.Directory.miss_type_mach_latency_hist_seqr::max_bucket         1279                      
system.ruby.RMW_Read.Directory.miss_type_mach_latency_hist_seqr::samples        37801                      
system.ruby.RMW_Read.Directory.miss_type_mach_latency_hist_seqr::mean   136.096214                      
system.ruby.RMW_Read.Directory.miss_type_mach_latency_hist_seqr::gmean   124.561994                      
system.ruby.RMW_Read.Directory.miss_type_mach_latency_hist_seqr::stdev    76.214052                      
system.ruby.RMW_Read.Directory.miss_type_mach_latency_hist_seqr |       30936     81.84%     81.84% |        4207     11.13%     92.97% |        1951      5.16%     98.13% |         282      0.75%     98.88% |         312      0.83%     99.70% |          97      0.26%     99.96% |           4      0.01%     99.97% |           8      0.02%     99.99% |           4      0.01%    100.00% |           0      0.00%    100.00%
system.ruby.RMW_Read.Directory.miss_type_mach_latency_hist_seqr::total        37801                      
system.ruby.Locked_RMW_Read.L1Cache.miss_type_mach_latency_hist_seqr::bucket_size            8                      
system.ruby.Locked_RMW_Read.L1Cache.miss_type_mach_latency_hist_seqr::max_bucket           79                      
system.ruby.Locked_RMW_Read.L1Cache.miss_type_mach_latency_hist_seqr::samples         5004                      
system.ruby.Locked_RMW_Read.L1Cache.miss_type_mach_latency_hist_seqr::mean    45.530975                      
system.ruby.Locked_RMW_Read.L1Cache.miss_type_mach_latency_hist_seqr::gmean    45.511069                      
system.ruby.Locked_RMW_Read.L1Cache.miss_type_mach_latency_hist_seqr::stdev     1.379021                      
system.ruby.Locked_RMW_Read.L1Cache.miss_type_mach_latency_hist_seqr |           0      0.00%      0.00% |           0      0.00%      0.00% |           0      0.00%      0.00% |           0      0.00%      0.00% |           0      0.00%      0.00% |        4377     87.47%     87.47% |         626     12.51%     99.98% |           1      0.02%    100.00% |           0      0.00%    100.00% |           0      0.00%    100.00%
system.ruby.Locked_RMW_Read.L1Cache.miss_type_mach_latency_hist_seqr::total         5004                      
system.ruby.Locked_RMW_Read.Directory.miss_type_mach_latency_hist_seqr::bucket_size          128                      
system.ruby.Locked_RMW_Read.Directory.miss_type_mach_latency_hist_seqr::max_bucket         1279                      
system.ruby.Locked_RMW_Read.Directory.miss_type_mach_latency_hist_seqr::samples        12475                      
system.ruby.Locked_RMW_Read.Directory.miss_type_mach_latency_hist_seqr::mean   130.615551                      
system.ruby.Locked_RMW_Read.Directory.miss_type_mach_latency_hist_seqr::gmean   116.130605                      
system.ruby.Locked_RMW_Read.Directory.miss_type_mach_latency_hist_seqr::stdev    74.340845                      
system.ruby.Locked_RMW_Read.Directory.miss_type_mach_latency_hist_seqr |        8284     66.40%     66.40% |        3488     27.96%     94.36% |         516      4.14%     98.50% |          76      0.61%     99.11% |          91      0.73%     99.84% |          13      0.10%     99.94% |           3      0.02%     99.97% |           4      0.03%    100.00% |           0      0.00%    100.00% |           0      0.00%    100.00%
system.ruby.Locked_RMW_Read.Directory.miss_type_mach_latency_hist_seqr::total        12475                      
system.ruby.Directory_Controller.GETX    |     4554590     51.28%     51.28% |     4327563     48.72%    100.00%
system.ruby.Directory_Controller.GETX::total      8882153                      
system.ruby.Directory_Controller.PUTX    |     4133414     51.56%     51.56% |     3883456     48.44%    100.00%
system.ruby.Directory_Controller.PUTX::total      8016870                      
system.ruby.Directory_Controller.PUTX_NotOwner |           3     60.00%     60.00% |           2     40.00%    100.00%
system.ruby.Directory_Controller.PUTX_NotOwner::total            5                      
system.ruby.Directory_Controller.DMA_READ |          53     55.21%     55.21% |          43     44.79%    100.00%
system.ruby.Directory_Controller.DMA_READ::total           96                      
system.ruby.Directory_Controller.DMA_WRITE |        1504     50.00%     50.00% |        1504     50.00%    100.00%
system.ruby.Directory_Controller.DMA_WRITE::total         3008                      
system.ruby.Directory_Controller.Memory_Data |     4133558     51.56%     51.56% |     3883613     48.44%    100.00%
system.ruby.Directory_Controller.Memory_Data::total      8017171                      
system.ruby.Directory_Controller.Memory_Ack |     4134908     51.56%     51.56% |     3884953     48.44%    100.00%
system.ruby.Directory_Controller.Memory_Ack::total      8019861                      
system.ruby.Directory_Controller.I.GETX  |     4133512     51.56%     51.56% |     3883570     48.44%    100.00%
system.ruby.Directory_Controller.I.GETX::total      8017082                      
system.ruby.Directory_Controller.I.DMA_READ |          46     51.69%     51.69% |          43     48.31%    100.00%
system.ruby.Directory_Controller.I.DMA_READ::total           89                      
system.ruby.Directory_Controller.I.DMA_WRITE |        1494     49.95%     49.95% |        1497     50.05%    100.00%
system.ruby.Directory_Controller.I.DMA_WRITE::total         2991                      
system.ruby.Directory_Controller.M.GETX  |      420941     48.67%     48.67% |      443946     51.33%    100.00%
system.ruby.Directory_Controller.M.GETX::total       864887                      
system.ruby.Directory_Controller.M.PUTX  |     4133397     51.56%     51.56% |     3883449     48.44%    100.00%
system.ruby.Directory_Controller.M.PUTX::total      8016846                      
system.ruby.Directory_Controller.M.PUTX_NotOwner |           3     60.00%     60.00% |           2     40.00%    100.00%
system.ruby.Directory_Controller.M.PUTX_NotOwner::total            5                      
system.ruby.Directory_Controller.M.DMA_READ |           7    100.00%    100.00% |           0      0.00%    100.00%
system.ruby.Directory_Controller.M.DMA_READ::total            7                      
system.ruby.Directory_Controller.M.DMA_WRITE |          10     58.82%     58.82% |           7     41.18%    100.00%
system.ruby.Directory_Controller.M.DMA_WRITE::total           17                      
system.ruby.Directory_Controller.M_DRD.PUTX |           7    100.00%    100.00% |           0      0.00%    100.00%
system.ruby.Directory_Controller.M_DRD.PUTX::total            7                      
system.ruby.Directory_Controller.M_DWR.PUTX |          10     58.82%     58.82% |           7     41.18%    100.00%
system.ruby.Directory_Controller.M_DWR.PUTX::total           17                      
system.ruby.Directory_Controller.M_DWRI.Memory_Ack |          10     58.82%     58.82% |           7     41.18%    100.00%
system.ruby.Directory_Controller.M_DWRI.Memory_Ack::total           17                      
system.ruby.Directory_Controller.M_DRDI.Memory_Ack |           7    100.00%    100.00% |           0      0.00%    100.00%
system.ruby.Directory_Controller.M_DRDI.Memory_Ack::total            7                      
system.ruby.Directory_Controller.IM.GETX |         136     74.73%     74.73% |          46     25.27%    100.00%
system.ruby.Directory_Controller.IM.GETX::total          182                      
system.ruby.Directory_Controller.IM.Memory_Data |     4133512     51.56%     51.56% |     3883570     48.44%    100.00%
system.ruby.Directory_Controller.IM.Memory_Data::total      8017082                      
system.ruby.Directory_Controller.MI.GETX |           1     50.00%     50.00% |           1     50.00%    100.00%
system.ruby.Directory_Controller.MI.GETX::total            2                      
system.ruby.Directory_Controller.MI.Memory_Ack |     4133397     51.56%     51.56% |     3883449     48.44%    100.00%
system.ruby.Directory_Controller.MI.Memory_Ack::total      8016846                      
system.ruby.Directory_Controller.ID.Memory_Data |          46     51.69%     51.69% |          43     48.31%    100.00%
system.ruby.Directory_Controller.ID.Memory_Data::total           89                      
system.ruby.Directory_Controller.ID_W.Memory_Ack |        1494     49.95%     49.95% |        1497     50.05%    100.00%
system.ruby.Directory_Controller.ID_W.Memory_Ack::total         2991                      
system.ruby.DMA_Controller.ReadRequest   |          96    100.00%    100.00% |           0      0.00%    100.00%
system.ruby.DMA_Controller.ReadRequest::total           96                      
system.ruby.DMA_Controller.WriteRequest  |        3008    100.00%    100.00% |           0      0.00%    100.00%
system.ruby.DMA_Controller.WriteRequest::total         3008                      
system.ruby.DMA_Controller.Data          |          96    100.00%    100.00% |           0      0.00%    100.00%
system.ruby.DMA_Controller.Data::total             96                      
system.ruby.DMA_Controller.Ack           |        3008    100.00%    100.00% |           0      0.00%    100.00%
system.ruby.DMA_Controller.Ack::total            3008                      
system.ruby.DMA_Controller.READY.ReadRequest |          96    100.00%    100.00% |           0      0.00%    100.00%
system.ruby.DMA_Controller.READY.ReadRequest::total           96                      
system.ruby.DMA_Controller.READY.WriteRequest |        3008    100.00%    100.00% |           0      0.00%    100.00%
system.ruby.DMA_Controller.READY.WriteRequest::total         3008                      
system.ruby.DMA_Controller.BUSY_RD.Data  |          96    100.00%    100.00% |           0      0.00%    100.00%
system.ruby.DMA_Controller.BUSY_RD.Data::total           96                      
system.ruby.DMA_Controller.BUSY_WR.Ack   |        3008    100.00%    100.00% |           0      0.00%    100.00%
system.ruby.DMA_Controller.BUSY_WR.Ack::total         3008                      
system.ruby.L1Cache_Controller.Load      |     6002932      1.04%      1.04% |   566574232     98.42%     99.46% |     1580992      0.27%     99.74% |     1508757      0.26%    100.00%
system.ruby.L1Cache_Controller.Load::total    575666913                      
system.ruby.L1Cache_Controller.Ifetch    |    29015450      0.00%      0.00% |18446744072222734336    100.00%    100.00% |     7712381      0.00%    100.00% |     7252700      0.00%    100.00%
system.ruby.L1Cache_Controller.Ifetch::total 18446744072266715136                      
system.ruby.L1Cache_Controller.Store     |     2369681      1.34%      1.34% |   172462625     97.37%     98.71% |     1191838      0.67%     99.38% |     1094155      0.62%    100.00%
system.ruby.L1Cache_Controller.Store::total    177118299                      
system.ruby.L1Cache_Controller.Data      |      400228      4.51%      4.51% |     7749165     87.25%     91.75% |      350450      3.95%     95.70% |      382126      4.30%    100.00%
system.ruby.L1Cache_Controller.Data::total      8881969                      
system.ruby.L1Cache_Controller.Fwd_GETX  |      267398     30.92%     30.92% |       71001      8.21%     39.13% |      263771     30.50%     69.62% |      262717     30.38%    100.00%
system.ruby.L1Cache_Controller.Fwd_GETX::total       864887                      
system.ruby.L1Cache_Controller.Inv       |          10     20.83%     20.83% |          34     70.83%     91.67% |           2      4.17%     95.83% |           2      4.17%    100.00%
system.ruby.L1Cache_Controller.Inv::total           48                      
system.ruby.L1Cache_Controller.Replacement |      163860      2.02%      2.02% |     7692178     94.80%     96.82% |      111763      1.38%     98.20% |      146233      1.80%    100.00%
system.ruby.L1Cache_Controller.Replacement::total      8114034                      
system.ruby.L1Cache_Controller.Writeback_Ack |      133037      1.66%      1.66% |     7678002     95.77%     97.43% |       87274      1.09%     98.52% |      118557      1.48%    100.00%
system.ruby.L1Cache_Controller.Writeback_Ack::total      8016870                      
system.ruby.L1Cache_Controller.Writeback_Nack |           2     40.00%     40.00% |           2     40.00%     80.00% |           1     20.00%    100.00% |           0      0.00%    100.00%
system.ruby.L1Cache_Controller.Writeback_Nack::total            5                      
system.ruby.L1Cache_Controller.I.Load    |       94653      3.02%      3.02% |     2854234     91.13%     94.16% |       83880      2.68%     96.83% |       99143      3.17%    100.00%
system.ruby.L1Cache_Controller.I.Load::total      3131910                      
system.ruby.L1Cache_Controller.I.Ifetch  |      269851      7.77%      7.77% |     2692653     77.52%     85.29% |      251151      7.23%     92.52% |      259645      7.48%    100.00%
system.ruby.L1Cache_Controller.I.Ifetch::total      3473300                      
system.ruby.L1Cache_Controller.I.Store   |       35724      1.57%      1.57% |     2202278     96.73%     98.30% |       15419      0.68%     98.97% |       23338      1.03%    100.00%
system.ruby.L1Cache_Controller.I.Store::total      2276759                      
system.ruby.L1Cache_Controller.I.Replacement |       30826     31.72%     31.72% |       14191     14.60%     46.32% |       24489     25.20%     71.52% |       27677     28.48%    100.00%
system.ruby.L1Cache_Controller.I.Replacement::total        97183                      
system.ruby.L1Cache_Controller.II.Writeback_Nack |           2     40.00%     40.00% |           2     40.00%     80.00% |           1     20.00%    100.00% |           0      0.00%    100.00%
system.ruby.L1Cache_Controller.II.Writeback_Nack::total            5                      
system.ruby.L1Cache_Controller.M.Load    |     5908279      1.03%      1.03% |   563719998     98.46%     99.49% |     1497112      0.26%     99.75% |     1409614      0.25%    100.00%
system.ruby.L1Cache_Controller.M.Load::total    572535003                      
system.ruby.L1Cache_Controller.M.Ifetch  |    28745599      0.00%      0.00% |18446744072220041216    100.00%    100.00% |     7461230      0.00%    100.00% |     6993055      0.00%    100.00%
system.ruby.L1Cache_Controller.M.Ifetch::total 18446744072263241728                      
system.ruby.L1Cache_Controller.M.Store   |     2333957      1.33%      1.33% |   170260347     97.38%     98.71% |     1176419      0.67%     99.39% |     1070817      0.61%    100.00%
system.ruby.L1Cache_Controller.M.Store::total    174841540                      
system.ruby.L1Cache_Controller.M.Fwd_GETX |      267396     30.92%     30.92% |       70999      8.21%     39.13% |      263770     30.50%     69.62% |      262717     30.38%    100.00%
system.ruby.L1Cache_Controller.M.Fwd_GETX::total       864882                      
system.ruby.L1Cache_Controller.M.Inv     |           5     20.83%     20.83% |          17     70.83%     91.67% |           1      4.17%     95.83% |           1      4.17%    100.00%
system.ruby.L1Cache_Controller.M.Inv::total           24                      
system.ruby.L1Cache_Controller.M.Replacement |      133034      1.66%      1.66% |     7677987     95.77%     97.43% |       87274      1.09%     98.52% |      118556      1.48%    100.00%
system.ruby.L1Cache_Controller.M.Replacement::total      8016851                      
system.ruby.L1Cache_Controller.MI.Fwd_GETX |           2     40.00%     40.00% |           2     40.00%     80.00% |           1     20.00%    100.00% |           0      0.00%    100.00%
system.ruby.L1Cache_Controller.MI.Fwd_GETX::total            5                      
system.ruby.L1Cache_Controller.MI.Inv    |           5     20.83%     20.83% |          17     70.83%     91.67% |           1      4.17%     95.83% |           1      4.17%    100.00%
system.ruby.L1Cache_Controller.MI.Inv::total           24                      
system.ruby.L1Cache_Controller.MI.Writeback_Ack |      133037      1.66%      1.66% |     7678002     95.77%     97.43% |       87274      1.09%     98.52% |      118557      1.48%    100.00%
system.ruby.L1Cache_Controller.MI.Writeback_Ack::total      8016870                      
system.ruby.L1Cache_Controller.IS.Data   |      364504      5.52%      5.52% |     5546887     83.98%     89.50% |      335031      5.07%     94.57% |      358788      5.43%    100.00%
system.ruby.L1Cache_Controller.IS.Data::total      6605210                      
system.ruby.L1Cache_Controller.IM.Data   |       35724      1.57%      1.57% |     2202278     96.73%     98.30% |       15419      0.68%     98.97% |       23338      1.03%    100.00%
system.ruby.L1Cache_Controller.IM.Data::total      2276759                      

---------- End Simulation Statistics   ----------
