
---------- Begin Simulation Statistics ----------
sim_seconds                                  3.965096                       # Number of seconds simulated
sim_ticks                                3965095894500                       # Number of ticks simulated
final_tick                               56270697582501                       # Number of ticks from beginning of simulation (restored from checkpoints and never reset)
sim_freq                                 1000000000000                       # Frequency of simulated ticks
host_inst_rate                                 152105                       # Simulator instruction rate (inst/s)
host_op_rate                                   259075                       # Simulator op (including micro ops) rate (op/s)
host_tick_rate                              298324010                       # Simulator tick rate (ticks/s)
host_mem_usage                                1874656                       # Number of bytes of host memory used
host_seconds                                 13291.24                       # Real time elapsed on the host
sim_insts                                  2021669293                       # Number of instructions simulated
sim_ops                                    3443428689                       # Number of ops (including micro ops) simulated
system.voltage_domain.voltage                       1                       # Voltage in Volts
system.clk_domain.clock                          1000                       # Clock period in ticks
system.mem_ctrls.bytes_read::ruby.dir_cntrl0    401441856                       # Number of bytes read from this memory
system.mem_ctrls.bytes_read::total          401441856                       # Number of bytes read from this memory
system.mem_ctrls.bytes_written::ruby.dir_cntrl0    401616704                       # Number of bytes written to this memory
system.mem_ctrls.bytes_written::total       401616704                       # Number of bytes written to this memory
system.mem_ctrls.num_reads::ruby.dir_cntrl0      6272529                       # Number of read requests responded to by this memory
system.mem_ctrls.num_reads::total             6272529                       # Number of read requests responded to by this memory
system.mem_ctrls.num_writes::ruby.dir_cntrl0      6275261                       # Number of write requests responded to by this memory
system.mem_ctrls.num_writes::total            6275261                       # Number of write requests responded to by this memory
system.mem_ctrls.bw_read::ruby.dir_cntrl0    101243921                       # Total read bandwidth from this memory (bytes/s)
system.mem_ctrls.bw_read::total             101243921                       # Total read bandwidth from this memory (bytes/s)
system.mem_ctrls.bw_write::ruby.dir_cntrl0    101288018                       # Write bandwidth from this memory (bytes/s)
system.mem_ctrls.bw_write::total            101288018                       # Write bandwidth from this memory (bytes/s)
system.mem_ctrls.bw_total::ruby.dir_cntrl0    202531939                       # Total bandwidth to/from this memory (bytes/s)
system.mem_ctrls.bw_total::total            202531939                       # Total bandwidth to/from this memory (bytes/s)
system.mem_ctrls.readReqs                     6272529                       # Number of read requests accepted
system.mem_ctrls.writeReqs                    6275261                       # Number of write requests accepted
system.mem_ctrls.readBursts                   6272529                       # Number of DRAM read bursts, including those serviced by the write queue
system.mem_ctrls.writeBursts                  6275261                       # Number of DRAM write bursts, including those merged in the write queue
system.mem_ctrls.bytesReadDRAM              384270208                       # Total number of bytes read from DRAM
system.mem_ctrls.bytesReadWrQ                17171648                       # Total number of bytes read from write queue
system.mem_ctrls.bytesWritten               401565184                       # Total number of bytes written to DRAM
system.mem_ctrls.bytesReadSys               401441856                       # Total read bytes from the system interface side
system.mem_ctrls.bytesWrittenSys            401616704                       # Total written bytes from the system interface side
system.mem_ctrls.servicedByWrQ                 268307                       # Number of DRAM read bursts serviced by the write queue
system.mem_ctrls.mergedWrBursts                   814                       # Number of DRAM write bursts merged with an existing one
system.mem_ctrls.neitherReadNorWriteReqs            0                       # Number of requests that are neither read nor write
system.mem_ctrls.perBankRdBursts::0            248473                       # Per bank write bursts
system.mem_ctrls.perBankRdBursts::1            232054                       # Per bank write bursts
system.mem_ctrls.perBankRdBursts::2            150232                       # Per bank write bursts
system.mem_ctrls.perBankRdBursts::3            533208                       # Per bank write bursts
system.mem_ctrls.perBankRdBursts::4            198631                       # Per bank write bursts
system.mem_ctrls.perBankRdBursts::5            246158                       # Per bank write bursts
system.mem_ctrls.perBankRdBursts::6            934131                       # Per bank write bursts
system.mem_ctrls.perBankRdBursts::7            678736                       # Per bank write bursts
system.mem_ctrls.perBankRdBursts::8            670282                       # Per bank write bursts
system.mem_ctrls.perBankRdBursts::9            363102                       # Per bank write bursts
system.mem_ctrls.perBankRdBursts::10           250187                       # Per bank write bursts
system.mem_ctrls.perBankRdBursts::11           269385                       # Per bank write bursts
system.mem_ctrls.perBankRdBursts::12           306471                       # Per bank write bursts
system.mem_ctrls.perBankRdBursts::13           327489                       # Per bank write bursts
system.mem_ctrls.perBankRdBursts::14           443589                       # Per bank write bursts
system.mem_ctrls.perBankRdBursts::15           152094                       # Per bank write bursts
system.mem_ctrls.perBankWrBursts::0            256698                       # Per bank write bursts
system.mem_ctrls.perBankWrBursts::1            246065                       # Per bank write bursts
system.mem_ctrls.perBankWrBursts::2            154512                       # Per bank write bursts
system.mem_ctrls.perBankWrBursts::3            560502                       # Per bank write bursts
system.mem_ctrls.perBankWrBursts::4            209629                       # Per bank write bursts
system.mem_ctrls.perBankWrBursts::5            257725                       # Per bank write bursts
system.mem_ctrls.perBankWrBursts::6            970049                       # Per bank write bursts
system.mem_ctrls.perBankWrBursts::7            697078                       # Per bank write bursts
system.mem_ctrls.perBankWrBursts::8            684239                       # Per bank write bursts
system.mem_ctrls.perBankWrBursts::9            381861                       # Per bank write bursts
system.mem_ctrls.perBankWrBursts::10           262290                       # Per bank write bursts
system.mem_ctrls.perBankWrBursts::11           286679                       # Per bank write bursts
system.mem_ctrls.perBankWrBursts::12           328352                       # Per bank write bursts
system.mem_ctrls.perBankWrBursts::13           343256                       # Per bank write bursts
system.mem_ctrls.perBankWrBursts::14           469124                       # Per bank write bursts
system.mem_ctrls.perBankWrBursts::15           166397                       # Per bank write bursts
system.mem_ctrls.numRdRetry                         0                       # Number of times read queue was full causing retry
system.mem_ctrls.numWrRetry                         0                       # Number of times write queue was full causing retry
system.mem_ctrls.totGap                  3965095898500                       # Total gap between requests
system.mem_ctrls.readPktSize::0                     0                       # Read request sizes (log2)
system.mem_ctrls.readPktSize::1                     0                       # Read request sizes (log2)
system.mem_ctrls.readPktSize::2                     0                       # Read request sizes (log2)
system.mem_ctrls.readPktSize::3                     0                       # Read request sizes (log2)
system.mem_ctrls.readPktSize::4                     0                       # Read request sizes (log2)
system.mem_ctrls.readPktSize::5                     0                       # Read request sizes (log2)
system.mem_ctrls.readPktSize::6               6272529                       # Read request sizes (log2)
system.mem_ctrls.writePktSize::0                    0                       # Write request sizes (log2)
system.mem_ctrls.writePktSize::1                    0                       # Write request sizes (log2)
system.mem_ctrls.writePktSize::2                    0                       # Write request sizes (log2)
system.mem_ctrls.writePktSize::3                    0                       # Write request sizes (log2)
system.mem_ctrls.writePktSize::4                    0                       # Write request sizes (log2)
system.mem_ctrls.writePktSize::5                    0                       # Write request sizes (log2)
system.mem_ctrls.writePktSize::6              6275261                       # Write request sizes (log2)
system.mem_ctrls.rdQLenPdf::0                 6000049                       # What read queue length does an incoming req see
system.mem_ctrls.rdQLenPdf::1                    4156                       # What read queue length does an incoming req see
system.mem_ctrls.rdQLenPdf::2                      17                       # What read queue length does an incoming req see
system.mem_ctrls.rdQLenPdf::3                       0                       # What read queue length does an incoming req see
system.mem_ctrls.rdQLenPdf::4                       0                       # What read queue length does an incoming req see
system.mem_ctrls.rdQLenPdf::5                       0                       # What read queue length does an incoming req see
system.mem_ctrls.rdQLenPdf::6                       0                       # What read queue length does an incoming req see
system.mem_ctrls.rdQLenPdf::7                       0                       # What read queue length does an incoming req see
system.mem_ctrls.rdQLenPdf::8                       0                       # What read queue length does an incoming req see
system.mem_ctrls.rdQLenPdf::9                       0                       # What read queue length does an incoming req see
system.mem_ctrls.rdQLenPdf::10                      0                       # What read queue length does an incoming req see
system.mem_ctrls.rdQLenPdf::11                      0                       # What read queue length does an incoming req see
system.mem_ctrls.rdQLenPdf::12                      0                       # What read queue length does an incoming req see
system.mem_ctrls.rdQLenPdf::13                      0                       # What read queue length does an incoming req see
system.mem_ctrls.rdQLenPdf::14                      0                       # What read queue length does an incoming req see
system.mem_ctrls.rdQLenPdf::15                      0                       # What read queue length does an incoming req see
system.mem_ctrls.rdQLenPdf::16                      0                       # What read queue length does an incoming req see
system.mem_ctrls.rdQLenPdf::17                      0                       # What read queue length does an incoming req see
system.mem_ctrls.rdQLenPdf::18                      0                       # What read queue length does an incoming req see
system.mem_ctrls.rdQLenPdf::19                      0                       # What read queue length does an incoming req see
system.mem_ctrls.rdQLenPdf::20                      0                       # What read queue length does an incoming req see
system.mem_ctrls.rdQLenPdf::21                      0                       # What read queue length does an incoming req see
system.mem_ctrls.rdQLenPdf::22                      0                       # What read queue length does an incoming req see
system.mem_ctrls.rdQLenPdf::23                      0                       # What read queue length does an incoming req see
system.mem_ctrls.rdQLenPdf::24                      0                       # What read queue length does an incoming req see
system.mem_ctrls.rdQLenPdf::25                      0                       # What read queue length does an incoming req see
system.mem_ctrls.rdQLenPdf::26                      0                       # What read queue length does an incoming req see
system.mem_ctrls.rdQLenPdf::27                      0                       # What read queue length does an incoming req see
system.mem_ctrls.rdQLenPdf::28                      0                       # What read queue length does an incoming req see
system.mem_ctrls.rdQLenPdf::29                      0                       # What read queue length does an incoming req see
system.mem_ctrls.rdQLenPdf::30                      0                       # What read queue length does an incoming req see
system.mem_ctrls.rdQLenPdf::31                      0                       # What read queue length does an incoming req see
system.mem_ctrls.wrQLenPdf::0                       0                       # What write queue length does an incoming req see
system.mem_ctrls.wrQLenPdf::1                       0                       # What write queue length does an incoming req see
system.mem_ctrls.wrQLenPdf::2                       0                       # What write queue length does an incoming req see
system.mem_ctrls.wrQLenPdf::3                       0                       # What write queue length does an incoming req see
system.mem_ctrls.wrQLenPdf::4                       0                       # What write queue length does an incoming req see
system.mem_ctrls.wrQLenPdf::5                       0                       # What write queue length does an incoming req see
system.mem_ctrls.wrQLenPdf::6                       0                       # What write queue length does an incoming req see
system.mem_ctrls.wrQLenPdf::7                       0                       # What write queue length does an incoming req see
system.mem_ctrls.wrQLenPdf::8                       0                       # What write queue length does an incoming req see
system.mem_ctrls.wrQLenPdf::9                       0                       # What write queue length does an incoming req see
system.mem_ctrls.wrQLenPdf::10                      0                       # What write queue length does an incoming req see
system.mem_ctrls.wrQLenPdf::11                      0                       # What write queue length does an incoming req see
system.mem_ctrls.wrQLenPdf::12                      0                       # What write queue length does an incoming req see
system.mem_ctrls.wrQLenPdf::13                      0                       # What write queue length does an incoming req see
system.mem_ctrls.wrQLenPdf::14                      0                       # What write queue length does an incoming req see
system.mem_ctrls.wrQLenPdf::15                  18437                       # What write queue length does an incoming req see
system.mem_ctrls.wrQLenPdf::16                  21480                       # What write queue length does an incoming req see
system.mem_ctrls.wrQLenPdf::17                 382995                       # What write queue length does an incoming req see
system.mem_ctrls.wrQLenPdf::18                 390525                       # What write queue length does an incoming req see
system.mem_ctrls.wrQLenPdf::19                 391071                       # What write queue length does an incoming req see
system.mem_ctrls.wrQLenPdf::20                 391094                       # What write queue length does an incoming req see
system.mem_ctrls.wrQLenPdf::21                 391579                       # What write queue length does an incoming req see
system.mem_ctrls.wrQLenPdf::22                 391679                       # What write queue length does an incoming req see
system.mem_ctrls.wrQLenPdf::23                 390759                       # What write queue length does an incoming req see
system.mem_ctrls.wrQLenPdf::24                 390194                       # What write queue length does an incoming req see
system.mem_ctrls.wrQLenPdf::25                 389740                       # What write queue length does an incoming req see
system.mem_ctrls.wrQLenPdf::26                 389278                       # What write queue length does an incoming req see
system.mem_ctrls.wrQLenPdf::27                 389179                       # What write queue length does an incoming req see
system.mem_ctrls.wrQLenPdf::28                 389164                       # What write queue length does an incoming req see
system.mem_ctrls.wrQLenPdf::29                 389118                       # What write queue length does an incoming req see
system.mem_ctrls.wrQLenPdf::30                 389117                       # What write queue length does an incoming req see
system.mem_ctrls.wrQLenPdf::31                 389095                       # What write queue length does an incoming req see
system.mem_ctrls.wrQLenPdf::32                 389088                       # What write queue length does an incoming req see
system.mem_ctrls.wrQLenPdf::33                    447                       # What write queue length does an incoming req see
system.mem_ctrls.wrQLenPdf::34                    172                       # What write queue length does an incoming req see
system.mem_ctrls.wrQLenPdf::35                     93                       # What write queue length does an incoming req see
system.mem_ctrls.wrQLenPdf::36                     61                       # What write queue length does an incoming req see
system.mem_ctrls.wrQLenPdf::37                     34                       # What write queue length does an incoming req see
system.mem_ctrls.wrQLenPdf::38                     22                       # What write queue length does an incoming req see
system.mem_ctrls.wrQLenPdf::39                     12                       # What write queue length does an incoming req see
system.mem_ctrls.wrQLenPdf::40                      4                       # What write queue length does an incoming req see
system.mem_ctrls.wrQLenPdf::41                      3                       # What write queue length does an incoming req see
system.mem_ctrls.wrQLenPdf::42                      1                       # What write queue length does an incoming req see
system.mem_ctrls.wrQLenPdf::43                      1                       # What write queue length does an incoming req see
system.mem_ctrls.wrQLenPdf::44                      2                       # What write queue length does an incoming req see
system.mem_ctrls.wrQLenPdf::45                      1                       # What write queue length does an incoming req see
system.mem_ctrls.wrQLenPdf::46                      1                       # What write queue length does an incoming req see
system.mem_ctrls.wrQLenPdf::47                      1                       # What write queue length does an incoming req see
system.mem_ctrls.wrQLenPdf::48                      0                       # What write queue length does an incoming req see
system.mem_ctrls.wrQLenPdf::49                      0                       # What write queue length does an incoming req see
system.mem_ctrls.wrQLenPdf::50                      0                       # What write queue length does an incoming req see
system.mem_ctrls.wrQLenPdf::51                      0                       # What write queue length does an incoming req see
system.mem_ctrls.wrQLenPdf::52                      0                       # What write queue length does an incoming req see
system.mem_ctrls.wrQLenPdf::53                      0                       # What write queue length does an incoming req see
system.mem_ctrls.wrQLenPdf::54                      0                       # What write queue length does an incoming req see
system.mem_ctrls.wrQLenPdf::55                      0                       # What write queue length does an incoming req see
system.mem_ctrls.wrQLenPdf::56                      0                       # What write queue length does an incoming req see
system.mem_ctrls.wrQLenPdf::57                      0                       # What write queue length does an incoming req see
system.mem_ctrls.wrQLenPdf::58                      0                       # What write queue length does an incoming req see
system.mem_ctrls.wrQLenPdf::59                      0                       # What write queue length does an incoming req see
system.mem_ctrls.wrQLenPdf::60                      0                       # What write queue length does an incoming req see
system.mem_ctrls.wrQLenPdf::61                      0                       # What write queue length does an incoming req see
system.mem_ctrls.wrQLenPdf::62                      0                       # What write queue length does an incoming req see
system.mem_ctrls.wrQLenPdf::63                      0                       # What write queue length does an incoming req see
system.mem_ctrls.bytesPerActivate::samples      3942275                       # Bytes accessed per row activation
system.mem_ctrls.bytesPerActivate::mean    199.335655                       # Bytes accessed per row activation
system.mem_ctrls.bytesPerActivate::gmean   143.677208                       # Bytes accessed per row activation
system.mem_ctrls.bytesPerActivate::stdev   182.442646                       # Bytes accessed per row activation
system.mem_ctrls.bytesPerActivate::0-127      1520140     38.56%     38.56% # Bytes accessed per row activation
system.mem_ctrls.bytesPerActivate::128-255      1244401     31.57%     70.13% # Bytes accessed per row activation
system.mem_ctrls.bytesPerActivate::256-383       553479     14.04%     84.17% # Bytes accessed per row activation
system.mem_ctrls.bytesPerActivate::384-511       293118      7.44%     91.60% # Bytes accessed per row activation
system.mem_ctrls.bytesPerActivate::512-639       154304      3.91%     95.51% # Bytes accessed per row activation
system.mem_ctrls.bytesPerActivate::640-767        83779      2.13%     97.64% # Bytes accessed per row activation
system.mem_ctrls.bytesPerActivate::768-895        44188      1.12%     98.76% # Bytes accessed per row activation
system.mem_ctrls.bytesPerActivate::896-1023        23788      0.60%     99.36% # Bytes accessed per row activation
system.mem_ctrls.bytesPerActivate::1024-1151        25078      0.64%    100.00% # Bytes accessed per row activation
system.mem_ctrls.bytesPerActivate::total      3942275                       # Bytes accessed per row activation
system.mem_ctrls.rdPerTurnAround::samples       389074                       # Reads before turning the bus around for writes
system.mem_ctrls.rdPerTurnAround::mean      15.432103                       # Reads before turning the bus around for writes
system.mem_ctrls.rdPerTurnAround::stdev      2.544610                       # Reads before turning the bus around for writes
system.mem_ctrls.rdPerTurnAround::0-7            7705      1.98%      1.98% # Reads before turning the bus around for writes
system.mem_ctrls.rdPerTurnAround::8-15         148245     38.10%     40.08% # Reads before turning the bus around for writes
system.mem_ctrls.rdPerTurnAround::16-23        230546     59.26%     99.34% # Reads before turning the bus around for writes
system.mem_ctrls.rdPerTurnAround::24-31          2385      0.61%     99.95% # Reads before turning the bus around for writes
system.mem_ctrls.rdPerTurnAround::32-39           125      0.03%     99.98% # Reads before turning the bus around for writes
system.mem_ctrls.rdPerTurnAround::40-47            20      0.01%     99.99% # Reads before turning the bus around for writes
system.mem_ctrls.rdPerTurnAround::48-55            13      0.00%     99.99% # Reads before turning the bus around for writes
system.mem_ctrls.rdPerTurnAround::56-63             8      0.00%     99.99% # Reads before turning the bus around for writes
system.mem_ctrls.rdPerTurnAround::64-71             5      0.00%     99.99% # Reads before turning the bus around for writes
system.mem_ctrls.rdPerTurnAround::72-79             6      0.00%    100.00% # Reads before turning the bus around for writes
system.mem_ctrls.rdPerTurnAround::80-87             2      0.00%    100.00% # Reads before turning the bus around for writes
system.mem_ctrls.rdPerTurnAround::88-95             3      0.00%    100.00% # Reads before turning the bus around for writes
system.mem_ctrls.rdPerTurnAround::96-103            3      0.00%    100.00% # Reads before turning the bus around for writes
system.mem_ctrls.rdPerTurnAround::112-119            3      0.00%    100.00% # Reads before turning the bus around for writes
system.mem_ctrls.rdPerTurnAround::136-143            1      0.00%    100.00% # Reads before turning the bus around for writes
system.mem_ctrls.rdPerTurnAround::144-151            1      0.00%    100.00% # Reads before turning the bus around for writes
system.mem_ctrls.rdPerTurnAround::152-159            3      0.00%    100.00% # Reads before turning the bus around for writes
system.mem_ctrls.rdPerTurnAround::total        389074                       # Reads before turning the bus around for writes
system.mem_ctrls.wrPerTurnAround::samples       389074                       # Writes before turning the bus around for reads
system.mem_ctrls.wrPerTurnAround::mean      16.126639                       # Writes before turning the bus around for reads
system.mem_ctrls.wrPerTurnAround::gmean     16.117593                       # Writes before turning the bus around for reads
system.mem_ctrls.wrPerTurnAround::stdev      0.572309                       # Writes before turning the bus around for reads
system.mem_ctrls.wrPerTurnAround::16           368280     94.66%     94.66% # Writes before turning the bus around for reads
system.mem_ctrls.wrPerTurnAround::17              966      0.25%     94.90% # Writes before turning the bus around for reads
system.mem_ctrls.wrPerTurnAround::18            13960      3.59%     98.49% # Writes before turning the bus around for reads
system.mem_ctrls.wrPerTurnAround::19             3802      0.98%     99.47% # Writes before turning the bus around for reads
system.mem_ctrls.wrPerTurnAround::20             1855      0.48%     99.95% # Writes before turning the bus around for reads
system.mem_ctrls.wrPerTurnAround::21               64      0.02%     99.96% # Writes before turning the bus around for reads
system.mem_ctrls.wrPerTurnAround::22               40      0.01%     99.97% # Writes before turning the bus around for reads
system.mem_ctrls.wrPerTurnAround::23               19      0.00%     99.98% # Writes before turning the bus around for reads
system.mem_ctrls.wrPerTurnAround::24               31      0.01%     99.99% # Writes before turning the bus around for reads
system.mem_ctrls.wrPerTurnAround::25               22      0.01%     99.99% # Writes before turning the bus around for reads
system.mem_ctrls.wrPerTurnAround::26               10      0.00%     99.99% # Writes before turning the bus around for reads
system.mem_ctrls.wrPerTurnAround::27                4      0.00%     99.99% # Writes before turning the bus around for reads
system.mem_ctrls.wrPerTurnAround::28               14      0.00%    100.00% # Writes before turning the bus around for reads
system.mem_ctrls.wrPerTurnAround::29                1      0.00%    100.00% # Writes before turning the bus around for reads
system.mem_ctrls.wrPerTurnAround::30                3      0.00%    100.00% # Writes before turning the bus around for reads
system.mem_ctrls.wrPerTurnAround::32                1      0.00%    100.00% # Writes before turning the bus around for reads
system.mem_ctrls.wrPerTurnAround::35                2      0.00%    100.00% # Writes before turning the bus around for reads
system.mem_ctrls.wrPerTurnAround::total        389074                       # Writes before turning the bus around for reads
system.mem_ctrls.totQLat                  86497600941                       # Total ticks spent queuing
system.mem_ctrls.totMemAccLat            199076763441                       # Total ticks spent from burst creation until serviced by the DRAM
system.mem_ctrls.totBusLat                30021110000                       # Total ticks spent in databus transfers
system.mem_ctrls.avgQLat                     14406.13                       # Average queueing delay per DRAM burst
system.mem_ctrls.avgBusLat                    5000.00                       # Average bus latency per DRAM burst
system.mem_ctrls.avgMemAccLat                33156.13                       # Average memory access latency per DRAM burst
system.mem_ctrls.avgRdBW                        96.91                       # Average DRAM read bandwidth in MiByte/s
system.mem_ctrls.avgWrBW                       101.28                       # Average achieved write bandwidth in MiByte/s
system.mem_ctrls.avgRdBWSys                    101.24                       # Average system read bandwidth in MiByte/s
system.mem_ctrls.avgWrBWSys                    101.29                       # Average system write bandwidth in MiByte/s
system.mem_ctrls.peakBW                      12800.00                       # Theoretical peak bandwidth in MiByte/s
system.mem_ctrls.busUtil                         1.55                       # Data bus utilization in percentage
system.mem_ctrls.busUtilRead                     0.76                       # Data bus utilization in percentage for reads
system.mem_ctrls.busUtilWrite                    0.79                       # Data bus utilization in percentage for writes
system.mem_ctrls.avgRdQLen                       1.00                       # Average read queue length when enqueuing
system.mem_ctrls.avgWrQLen                      25.48                       # Average write queue length when enqueuing
system.mem_ctrls.readRowHits                  4168658                       # Number of row buffer hits during reads
system.mem_ctrls.writeRowHits                 4167745                       # Number of row buffer hits during writes
system.mem_ctrls.readRowHitRate                 69.43                       # Row buffer hit rate for reads
system.mem_ctrls.writeRowHitRate                66.42                       # Row buffer hit rate for writes
system.mem_ctrls.avgGap                     315999.54                       # Average gap between requests
system.mem_ctrls.pageHitRate                    67.89                       # Row buffer hit rate, read and write combined
system.mem_ctrls_0.actEnergy              14917792680                       # Energy for activate commands per rank (pJ)
system.mem_ctrls_0.preEnergy               8139668625                       # Energy for precharge commands per rank (pJ)
system.mem_ctrls_0.readEnergy             25294557600                       # Energy for read commands per rank (pJ)
system.mem_ctrls_0.writeEnergy            21854260080                       # Energy for write commands per rank (pJ)
system.mem_ctrls_0.refreshEnergy         259296944400                       # Energy for refresh commands per rank (pJ)
system.mem_ctrls_0.actBackEnergy         1409673021480                       # Energy for active background per rank (pJ)
system.mem_ctrls_0.preBackEnergy         1145406687750                       # Energy for precharge background per rank (pJ)
system.mem_ctrls_0.totalEnergy           2884582932615                       # Total energy per rank (pJ)
system.mem_ctrls_0.averagePower            726.606798                       # Core power per rank (mW)
system.mem_ctrls_0.memoryStateTime::IDLE 1896577081250                       # Time in different power states
system.mem_ctrls_0.memoryStateTime::REF  132403440000                       # Time in different power states
system.mem_ctrls_0.memoryStateTime::PRE_PDN            0                       # Time in different power states
system.mem_ctrls_0.memoryStateTime::ACT  1936119634250                       # Time in different power states
system.mem_ctrls_0.memoryStateTime::ACT_PDN            0                       # Time in different power states
system.mem_ctrls_1.actEnergy              15143874480                       # Energy for activate commands per rank (pJ)
system.mem_ctrls_1.preEnergy               8263026750                       # Energy for precharge commands per rank (pJ)
system.mem_ctrls_1.readEnergy             21838471200                       # Energy for read commands per rank (pJ)
system.mem_ctrls_1.writeEnergy            19040255280                       # Energy for write commands per rank (pJ)
system.mem_ctrls_1.refreshEnergy         259296944400                       # Energy for refresh commands per rank (pJ)
system.mem_ctrls_1.actBackEnergy         1291446101835                       # Energy for active background per rank (pJ)
system.mem_ctrls_1.preBackEnergy         1249114512000                       # Energy for precharge background per rank (pJ)
system.mem_ctrls_1.totalEnergy           2864143185945                       # Total energy per rank (pJ)
system.mem_ctrls_1.averagePower            721.458165                       # Core power per rank (mW)
system.mem_ctrls_1.memoryStateTime::IDLE 2069879729500                       # Time in different power states
system.mem_ctrls_1.memoryStateTime::REF  132403440000                       # Time in different power states
system.mem_ctrls_1.memoryStateTime::PRE_PDN            0                       # Time in different power states
system.mem_ctrls_1.memoryStateTime::ACT  1762817925500                       # Time in different power states
system.mem_ctrls_1.memoryStateTime::ACT_PDN            0                       # Time in different power states
system.cpu_voltage_domain.voltage                   1                       # Voltage in Volts
system.cpu_clk_domain.clock                       500                       # Clock period in ticks
system.cpu0.apic_clk_domain.clock                8000                       # Clock period in ticks
system.cpu0.numCycles                      7929371875                       # number of cpu cycles simulated
system.cpu0.numWorkItemsStarted                     0                       # number of work items this cpu started
system.cpu0.numWorkItemsCompleted                   0                       # number of work items this cpu completed
system.cpu0.kern.inst.arm                           0                       # number of arm instructions executed
system.cpu0.kern.inst.quiesce                       0                       # number of quiesce instructions executed
system.cpu0.committedInsts                    3227479                       # Number of instructions committed
system.cpu0.committedOps                      7020713                       # Number of ops (including micro ops) committed
system.cpu0.num_int_alu_accesses              6870646                       # Number of integer alu accesses
system.cpu0.num_fp_alu_accesses                     0                       # Number of float alu accesses
system.cpu0.num_func_calls                     206869                       # number of times a function call or return occured
system.cpu0.num_conditional_control_insts       468088                       # number of instructions that are conditional controls
system.cpu0.num_int_insts                     6870646                       # number of integer instructions
system.cpu0.num_fp_insts                            0                       # number of float instructions
system.cpu0.num_int_register_reads           13941790                       # number of times the integer registers were read
system.cpu0.num_int_register_writes           5690288                       # number of times the integer registers were written
system.cpu0.num_fp_register_reads                   0                       # number of times the floating registers were read
system.cpu0.num_fp_register_writes                  0                       # number of times the floating registers were written
system.cpu0.num_cc_register_reads             3887614                       # number of times the CC registers were read
system.cpu0.num_cc_register_writes            2112217                       # number of times the CC registers were written
system.cpu0.num_mem_refs                      1652635                       # number of memory refs
system.cpu0.num_load_insts                    1022174                       # Number of load instructions
system.cpu0.num_store_insts                    630461                       # Number of store instructions
system.cpu0.num_idle_cycles              7905217989.565386                       # Number of idle cycles
system.cpu0.num_busy_cycles              24153885.434614                       # Number of busy cycles
system.cpu0.not_idle_fraction                0.003046                       # Percentage of non-idle cycles
system.cpu0.idle_fraction                    0.996954                       # Percentage of idle cycles
system.cpu0.Branches                           737335                       # Number of branches fetched
system.cpu0.op_class::No_OpClass               119942      1.71%      1.71% # Class of executed instruction
system.cpu0.op_class::IntAlu                  5195029     74.00%     75.70% # Class of executed instruction
system.cpu0.op_class::IntMult                   13401      0.19%     75.89% # Class of executed instruction
system.cpu0.op_class::IntDiv                    39712      0.57%     76.46% # Class of executed instruction
system.cpu0.op_class::FloatAdd                      0      0.00%     76.46% # Class of executed instruction
system.cpu0.op_class::FloatCmp                      0      0.00%     76.46% # Class of executed instruction
system.cpu0.op_class::FloatCvt                      0      0.00%     76.46% # Class of executed instruction
system.cpu0.op_class::FloatMult                     0      0.00%     76.46% # Class of executed instruction
system.cpu0.op_class::FloatDiv                      0      0.00%     76.46% # Class of executed instruction
system.cpu0.op_class::FloatSqrt                     0      0.00%     76.46% # Class of executed instruction
system.cpu0.op_class::SimdAdd                       0      0.00%     76.46% # Class of executed instruction
system.cpu0.op_class::SimdAddAcc                    0      0.00%     76.46% # Class of executed instruction
system.cpu0.op_class::SimdAlu                       0      0.00%     76.46% # Class of executed instruction
system.cpu0.op_class::SimdCmp                       0      0.00%     76.46% # Class of executed instruction
system.cpu0.op_class::SimdCvt                       0      0.00%     76.46% # Class of executed instruction
system.cpu0.op_class::SimdMisc                      0      0.00%     76.46% # Class of executed instruction
system.cpu0.op_class::SimdMult                      0      0.00%     76.46% # Class of executed instruction
system.cpu0.op_class::SimdMultAcc                   0      0.00%     76.46% # Class of executed instruction
system.cpu0.op_class::SimdShift                     0      0.00%     76.46% # Class of executed instruction
system.cpu0.op_class::SimdShiftAcc                  0      0.00%     76.46% # Class of executed instruction
system.cpu0.op_class::SimdSqrt                      0      0.00%     76.46% # Class of executed instruction
system.cpu0.op_class::SimdFloatAdd                  0      0.00%     76.46% # Class of executed instruction
system.cpu0.op_class::SimdFloatAlu                  0      0.00%     76.46% # Class of executed instruction
system.cpu0.op_class::SimdFloatCmp                  0      0.00%     76.46% # Class of executed instruction
system.cpu0.op_class::SimdFloatCvt                  0      0.00%     76.46% # Class of executed instruction
system.cpu0.op_class::SimdFloatDiv                  0      0.00%     76.46% # Class of executed instruction
system.cpu0.op_class::SimdFloatMisc                 0      0.00%     76.46% # Class of executed instruction
system.cpu0.op_class::SimdFloatMult                 0      0.00%     76.46% # Class of executed instruction
system.cpu0.op_class::SimdFloatMultAcc              0      0.00%     76.46% # Class of executed instruction
system.cpu0.op_class::SimdFloatSqrt                 0      0.00%     76.46% # Class of executed instruction
system.cpu0.op_class::MemRead                 1022174     14.56%     91.02% # Class of executed instruction
system.cpu0.op_class::MemWrite                 630461      8.98%    100.00% # Class of executed instruction
system.cpu0.op_class::IprAccess                     0      0.00%    100.00% # Class of executed instruction
system.cpu0.op_class::InstPrefetch                  0      0.00%    100.00% # Class of executed instruction
system.cpu0.op_class::total                   7020719                       # Class of executed instruction
system.cpu1.apic_clk_domain.clock                8000                       # Clock period in ticks
system.cpu1.numCycles                      7927672877                       # number of cpu cycles simulated
system.cpu1.numWorkItemsStarted                     0                       # number of work items this cpu started
system.cpu1.numWorkItemsCompleted                   0                       # number of work items this cpu completed
system.cpu1.kern.inst.arm                           0                       # number of arm instructions executed
system.cpu1.kern.inst.quiesce                       0                       # number of quiesce instructions executed
system.cpu1.committedInsts                    3544513                       # Number of instructions committed
system.cpu1.committedOps                      7387620                       # Number of ops (including micro ops) committed
system.cpu1.num_int_alu_accesses              7241571                       # Number of integer alu accesses
system.cpu1.num_fp_alu_accesses                  1952                       # Number of float alu accesses
system.cpu1.num_func_calls                     190593                       # number of times a function call or return occured
system.cpu1.num_conditional_control_insts       543276                       # number of instructions that are conditional controls
system.cpu1.num_int_insts                     7241571                       # number of integer instructions
system.cpu1.num_fp_insts                         1952                       # number of float instructions
system.cpu1.num_int_register_reads           14701706                       # number of times the integer registers were read
system.cpu1.num_int_register_writes           5976036                       # number of times the integer registers were written
system.cpu1.num_fp_register_reads                3276                       # number of times the floating registers were read
system.cpu1.num_fp_register_writes               1552                       # number of times the floating registers were written
system.cpu1.num_cc_register_reads             4160732                       # number of times the CC registers were read
system.cpu1.num_cc_register_writes            2266434                       # number of times the CC registers were written
system.cpu1.num_mem_refs                      1741197                       # number of memory refs
system.cpu1.num_load_insts                    1080678                       # Number of load instructions
system.cpu1.num_store_insts                    660519                       # Number of store instructions
system.cpu1.num_idle_cycles              7900689732.535179                       # Number of idle cycles
system.cpu1.num_busy_cycles              26983144.464821                       # Number of busy cycles
system.cpu1.not_idle_fraction                0.003404                       # Percentage of non-idle cycles
system.cpu1.idle_fraction                    0.996596                       # Percentage of idle cycles
system.cpu1.Branches                           797780                       # Number of branches fetched
system.cpu1.op_class::No_OpClass               117098      1.59%      1.59% # Class of executed instruction
system.cpu1.op_class::IntAlu                  5470611     74.05%     75.64% # Class of executed instruction
system.cpu1.op_class::IntMult                   16408      0.22%     75.86% # Class of executed instruction
system.cpu1.op_class::IntDiv                    40938      0.55%     76.41% # Class of executed instruction
system.cpu1.op_class::FloatAdd                   1456      0.02%     76.43% # Class of executed instruction
system.cpu1.op_class::FloatCmp                      0      0.00%     76.43% # Class of executed instruction
system.cpu1.op_class::FloatCvt                      0      0.00%     76.43% # Class of executed instruction
system.cpu1.op_class::FloatMult                     0      0.00%     76.43% # Class of executed instruction
system.cpu1.op_class::FloatDiv                      0      0.00%     76.43% # Class of executed instruction
system.cpu1.op_class::FloatSqrt                     0      0.00%     76.43% # Class of executed instruction
system.cpu1.op_class::SimdAdd                       0      0.00%     76.43% # Class of executed instruction
system.cpu1.op_class::SimdAddAcc                    0      0.00%     76.43% # Class of executed instruction
system.cpu1.op_class::SimdAlu                       0      0.00%     76.43% # Class of executed instruction
system.cpu1.op_class::SimdCmp                       0      0.00%     76.43% # Class of executed instruction
system.cpu1.op_class::SimdCvt                       0      0.00%     76.43% # Class of executed instruction
system.cpu1.op_class::SimdMisc                      0      0.00%     76.43% # Class of executed instruction
system.cpu1.op_class::SimdMult                      0      0.00%     76.43% # Class of executed instruction
system.cpu1.op_class::SimdMultAcc                   0      0.00%     76.43% # Class of executed instruction
system.cpu1.op_class::SimdShift                     0      0.00%     76.43% # Class of executed instruction
system.cpu1.op_class::SimdShiftAcc                  0      0.00%     76.43% # Class of executed instruction
system.cpu1.op_class::SimdSqrt                      0      0.00%     76.43% # Class of executed instruction
system.cpu1.op_class::SimdFloatAdd                  0      0.00%     76.43% # Class of executed instruction
system.cpu1.op_class::SimdFloatAlu                  0      0.00%     76.43% # Class of executed instruction
system.cpu1.op_class::SimdFloatCmp                  0      0.00%     76.43% # Class of executed instruction
system.cpu1.op_class::SimdFloatCvt                  0      0.00%     76.43% # Class of executed instruction
system.cpu1.op_class::SimdFloatDiv                  0      0.00%     76.43% # Class of executed instruction
system.cpu1.op_class::SimdFloatMisc                 0      0.00%     76.43% # Class of executed instruction
system.cpu1.op_class::SimdFloatMult                 0      0.00%     76.43% # Class of executed instruction
system.cpu1.op_class::SimdFloatMultAcc              0      0.00%     76.43% # Class of executed instruction
system.cpu1.op_class::SimdFloatSqrt                 0      0.00%     76.43% # Class of executed instruction
system.cpu1.op_class::MemRead                 1080678     14.63%     91.06% # Class of executed instruction
system.cpu1.op_class::MemWrite                 660519      8.94%    100.00% # Class of executed instruction
system.cpu1.op_class::IprAccess                     0      0.00%    100.00% # Class of executed instruction
system.cpu1.op_class::InstPrefetch                  0      0.00%    100.00% # Class of executed instruction
system.cpu1.op_class::total                   7387708                       # Class of executed instruction
system.cpu2.apic_clk_domain.clock                8000                       # Clock period in ticks
system.cpu2.numCycles                      7930878641                       # number of cpu cycles simulated
system.cpu2.numWorkItemsStarted                     0                       # number of work items this cpu started
system.cpu2.numWorkItemsCompleted                   0                       # number of work items this cpu completed
system.cpu2.kern.inst.arm                           0                       # number of arm instructions executed
system.cpu2.kern.inst.quiesce                       0                       # number of quiesce instructions executed
system.cpu2.committedInsts                   19378217                       # Number of instructions committed
system.cpu2.committedOps                     34252001                       # Number of ops (including micro ops) committed
system.cpu2.num_int_alu_accesses             28856091                       # Number of integer alu accesses
system.cpu2.num_fp_alu_accesses               8399336                       # Number of float alu accesses
system.cpu2.num_func_calls                     590465                       # number of times a function call or return occured
system.cpu2.num_conditional_control_insts      2054596                       # number of instructions that are conditional controls
system.cpu2.num_int_insts                    28856091                       # number of integer instructions
system.cpu2.num_fp_insts                      8399336                       # number of float instructions
system.cpu2.num_int_register_reads           55683526                       # number of times the integer registers were read
system.cpu2.num_int_register_writes          21957084                       # number of times the integer registers were written
system.cpu2.num_fp_register_reads            14064329                       # number of times the floating registers were read
system.cpu2.num_fp_register_writes            7474281                       # number of times the floating registers were written
system.cpu2.num_cc_register_reads            14024490                       # number of times the CC registers were read
system.cpu2.num_cc_register_writes           10312574                       # number of times the CC registers were written
system.cpu2.num_mem_refs                      7677813                       # number of memory refs
system.cpu2.num_load_insts                    5716494                       # Number of load instructions
system.cpu2.num_store_insts                   1961319                       # Number of store instructions
system.cpu2.num_idle_cycles              7842294017.150162                       # Number of idle cycles
system.cpu2.num_busy_cycles              88584623.849839                       # Number of busy cycles
system.cpu2.not_idle_fraction                0.011170                       # Percentage of non-idle cycles
system.cpu2.idle_fraction                    0.988830                       # Percentage of idle cycles
system.cpu2.Branches                          2798041                       # Number of branches fetched
system.cpu2.op_class::No_OpClass               124708      0.36%      0.36% # Class of executed instruction
system.cpu2.op_class::IntAlu                 22575728     65.91%     66.27% # Class of executed instruction
system.cpu2.op_class::IntMult                  213796      0.62%     66.90% # Class of executed instruction
system.cpu2.op_class::IntDiv                    41793      0.12%     67.02% # Class of executed instruction
system.cpu2.op_class::FloatAdd                3618219     10.56%     77.58% # Class of executed instruction
system.cpu2.op_class::FloatCmp                      0      0.00%     77.58% # Class of executed instruction
system.cpu2.op_class::FloatCvt                      0      0.00%     77.58% # Class of executed instruction
system.cpu2.op_class::FloatMult                     0      0.00%     77.58% # Class of executed instruction
system.cpu2.op_class::FloatDiv                      0      0.00%     77.58% # Class of executed instruction
system.cpu2.op_class::FloatSqrt                     0      0.00%     77.58% # Class of executed instruction
system.cpu2.op_class::SimdAdd                       0      0.00%     77.58% # Class of executed instruction
system.cpu2.op_class::SimdAddAcc                    0      0.00%     77.58% # Class of executed instruction
system.cpu2.op_class::SimdAlu                       0      0.00%     77.58% # Class of executed instruction
system.cpu2.op_class::SimdCmp                       0      0.00%     77.58% # Class of executed instruction
system.cpu2.op_class::SimdCvt                       0      0.00%     77.58% # Class of executed instruction
system.cpu2.op_class::SimdMisc                      0      0.00%     77.58% # Class of executed instruction
system.cpu2.op_class::SimdMult                      0      0.00%     77.58% # Class of executed instruction
system.cpu2.op_class::SimdMultAcc                   0      0.00%     77.58% # Class of executed instruction
system.cpu2.op_class::SimdShift                     0      0.00%     77.58% # Class of executed instruction
system.cpu2.op_class::SimdShiftAcc                  0      0.00%     77.58% # Class of executed instruction
system.cpu2.op_class::SimdSqrt                      0      0.00%     77.58% # Class of executed instruction
system.cpu2.op_class::SimdFloatAdd                  0      0.00%     77.58% # Class of executed instruction
system.cpu2.op_class::SimdFloatAlu                  0      0.00%     77.58% # Class of executed instruction
system.cpu2.op_class::SimdFloatCmp                  0      0.00%     77.58% # Class of executed instruction
system.cpu2.op_class::SimdFloatCvt                  0      0.00%     77.58% # Class of executed instruction
system.cpu2.op_class::SimdFloatDiv                  0      0.00%     77.58% # Class of executed instruction
system.cpu2.op_class::SimdFloatMisc                 0      0.00%     77.58% # Class of executed instruction
system.cpu2.op_class::SimdFloatMult                 0      0.00%     77.58% # Class of executed instruction
system.cpu2.op_class::SimdFloatMultAcc              0      0.00%     77.58% # Class of executed instruction
system.cpu2.op_class::SimdFloatSqrt                 0      0.00%     77.58% # Class of executed instruction
system.cpu2.op_class::MemRead                 5716494     16.69%     94.27% # Class of executed instruction
system.cpu2.op_class::MemWrite                1961319      5.73%    100.00% # Class of executed instruction
system.cpu2.op_class::IprAccess                     0      0.00%    100.00% # Class of executed instruction
system.cpu2.op_class::InstPrefetch                  0      0.00%    100.00% # Class of executed instruction
system.cpu2.op_class::total                  34252057                       # Class of executed instruction
system.cpu3.apic_clk_domain.clock                8000                       # Clock period in ticks
system.cpu3.numCycles                      7932610951                       # number of cpu cycles simulated
system.cpu3.numWorkItemsStarted                     0                       # number of work items this cpu started
system.cpu3.numWorkItemsCompleted                   0                       # number of work items this cpu completed
system.cpu3.kern.inst.arm                           0                       # number of arm instructions executed
system.cpu3.kern.inst.quiesce                       0                       # number of quiesce instructions executed
system.cpu3.committedInsts                 1994123304                       # Number of instructions committed
system.cpu3.committedOps                   3392195198                       # Number of ops (including micro ops) committed
system.cpu3.num_int_alu_accesses           2756854234                       # Number of integer alu accesses
system.cpu3.num_fp_alu_accesses            1010088517                       # Number of float alu accesses
system.cpu3.num_func_calls                   49914703                       # number of times a function call or return occured
system.cpu3.num_conditional_control_insts    199785493                       # number of instructions that are conditional controls
system.cpu3.num_int_insts                  2756854234                       # number of integer instructions
system.cpu3.num_fp_insts                   1010088517                       # number of float instructions
system.cpu3.num_int_register_reads         5216881259                       # number of times the integer registers were read
system.cpu3.num_int_register_writes        2052026505                       # number of times the integer registers were written
system.cpu3.num_fp_register_reads          1701898740                       # number of times the floating registers were read
system.cpu3.num_fp_register_writes          899765659                       # number of times the floating registers were written
system.cpu3.num_cc_register_reads          1288294632                       # number of times the CC registers were read
system.cpu3.num_cc_register_writes         1039139332                       # number of times the CC registers were written
system.cpu3.num_mem_refs                    738083201                       # number of memory refs
system.cpu3.num_load_insts                  571715689                       # Number of load instructions
system.cpu3.num_store_insts                 166367512                       # Number of store instructions
system.cpu3.num_idle_cycles              72545103.656257                       # Number of idle cycles
system.cpu3.num_busy_cycles              7860065847.343742                       # Number of busy cycles
system.cpu3.not_idle_fraction                0.990855                       # Percentage of non-idle cycles
system.cpu3.idle_fraction                    0.009145                       # Percentage of idle cycles
system.cpu3.Branches                        261106243                       # Number of branches fetched
system.cpu3.op_class::No_OpClass              1507516      0.04%      0.04% # Class of executed instruction
system.cpu3.op_class::IntAlu               2188733580     64.52%     64.57% # Class of executed instruction
system.cpu3.op_class::IntMult                24040628      0.71%     65.28% # Class of executed instruction
system.cpu3.op_class::IntDiv                   211061      0.01%     65.28% # Class of executed instruction
system.cpu3.op_class::FloatAdd              439619365     12.96%     78.24% # Class of executed instruction
system.cpu3.op_class::FloatCmp                      0      0.00%     78.24% # Class of executed instruction
system.cpu3.op_class::FloatCvt                      0      0.00%     78.24% # Class of executed instruction
system.cpu3.op_class::FloatMult                     0      0.00%     78.24% # Class of executed instruction
system.cpu3.op_class::FloatDiv                      0      0.00%     78.24% # Class of executed instruction
system.cpu3.op_class::FloatSqrt                     0      0.00%     78.24% # Class of executed instruction
system.cpu3.op_class::SimdAdd                       0      0.00%     78.24% # Class of executed instruction
system.cpu3.op_class::SimdAddAcc                    0      0.00%     78.24% # Class of executed instruction
system.cpu3.op_class::SimdAlu                       0      0.00%     78.24% # Class of executed instruction
system.cpu3.op_class::SimdCmp                       0      0.00%     78.24% # Class of executed instruction
system.cpu3.op_class::SimdCvt                       0      0.00%     78.24% # Class of executed instruction
system.cpu3.op_class::SimdMisc                      0      0.00%     78.24% # Class of executed instruction
system.cpu3.op_class::SimdMult                      0      0.00%     78.24% # Class of executed instruction
system.cpu3.op_class::SimdMultAcc                   0      0.00%     78.24% # Class of executed instruction
system.cpu3.op_class::SimdShift                     0      0.00%     78.24% # Class of executed instruction
system.cpu3.op_class::SimdShiftAcc                  0      0.00%     78.24% # Class of executed instruction
system.cpu3.op_class::SimdSqrt                      0      0.00%     78.24% # Class of executed instruction
system.cpu3.op_class::SimdFloatAdd                  0      0.00%     78.24% # Class of executed instruction
system.cpu3.op_class::SimdFloatAlu                  0      0.00%     78.24% # Class of executed instruction
system.cpu3.op_class::SimdFloatCmp                  0      0.00%     78.24% # Class of executed instruction
system.cpu3.op_class::SimdFloatCvt                  0      0.00%     78.24% # Class of executed instruction
system.cpu3.op_class::SimdFloatDiv                  0      0.00%     78.24% # Class of executed instruction
system.cpu3.op_class::SimdFloatMisc                 0      0.00%     78.24% # Class of executed instruction
system.cpu3.op_class::SimdFloatMult                 0      0.00%     78.24% # Class of executed instruction
system.cpu3.op_class::SimdFloatMultAcc              0      0.00%     78.24% # Class of executed instruction
system.cpu3.op_class::SimdFloatSqrt                 0      0.00%     78.24% # Class of executed instruction
system.cpu3.op_class::MemRead               571715689     16.85%     95.10% # Class of executed instruction
system.cpu3.op_class::MemWrite              166367512      4.90%    100.00% # Class of executed instruction
system.cpu3.op_class::IprAccess                     0      0.00%    100.00% # Class of executed instruction
system.cpu3.op_class::InstPrefetch                  0      0.00%    100.00% # Class of executed instruction
system.cpu3.op_class::total                3392195351                       # Class of executed instruction
system.iobus.trans_dist::ReadReq                  119                       # Transaction distribution
system.iobus.trans_dist::ReadResp                 119                       # Transaction distribution
system.iobus.trans_dist::WriteReq                4104                       # Transaction distribution
system.iobus.trans_dist::WriteResp               4104                       # Transaction distribution
system.iobus.trans_dist::MessageReq                20                       # Transaction distribution
system.iobus.trans_dist::MessageResp               20                       # Transaction distribution
system.iobus.pkt_count_system.pc.south_bridge.io_apic.int_master::system.ruby.l1_cntrl0.sequencer.pio-slave-port            4                       # Packet count per connected master and slave (bytes)
system.iobus.pkt_count_system.pc.south_bridge.io_apic.int_master::system.ruby.l1_cntrl1.sequencer.pio-slave-port            6                       # Packet count per connected master and slave (bytes)
system.iobus.pkt_count_system.pc.south_bridge.io_apic.int_master::system.ruby.l1_cntrl2.sequencer.pio-slave-port            6                       # Packet count per connected master and slave (bytes)
system.iobus.pkt_count_system.pc.south_bridge.io_apic.int_master::system.ruby.l1_cntrl3.sequencer.pio-slave-port            4                       # Packet count per connected master and slave (bytes)
system.iobus.pkt_count_system.pc.south_bridge.io_apic.int_master::total           20                       # Packet count per connected master and slave (bytes)
system.iobus.pkt_count_system.ruby.l1_cntrl0.sequencer.mem-master-port::system.pc.south_bridge.ide.pio           46                       # Packet count per connected master and slave (bytes)
system.iobus.pkt_count_system.ruby.l1_cntrl0.sequencer.mem-master-port::system.pc.south_bridge.io_apic.pio            6                       # Packet count per connected master and slave (bytes)
system.iobus.pkt_count_system.ruby.l1_cntrl0.sequencer.mem-master-port::system.pc.com_1.pio           22                       # Packet count per connected master and slave (bytes)
system.iobus.pkt_count_system.ruby.l1_cntrl0.sequencer.mem-master-port::system.ruby.l1_cntrl0.sequencer.pio-slave-port         2004                       # Packet count per connected master and slave (bytes)
system.iobus.pkt_count_system.ruby.l1_cntrl0.sequencer.mem-master-port::system.ruby.l1_cntrl1.sequencer.pio-slave-port            2                       # Packet count per connected master and slave (bytes)
system.iobus.pkt_count_system.ruby.l1_cntrl0.sequencer.mem-master-port::system.ruby.l1_cntrl2.sequencer.pio-slave-port            2                       # Packet count per connected master and slave (bytes)
system.iobus.pkt_count_system.ruby.l1_cntrl0.sequencer.mem-master-port::total         2082                       # Packet count per connected master and slave (bytes)
system.iobus.pkt_count_system.ruby.l1_cntrl1.sequencer.mem-master-port::system.pc.south_bridge.ide.pio           46                       # Packet count per connected master and slave (bytes)
system.iobus.pkt_count_system.ruby.l1_cntrl1.sequencer.mem-master-port::system.pc.south_bridge.io_apic.pio           14                       # Packet count per connected master and slave (bytes)
system.iobus.pkt_count_system.ruby.l1_cntrl1.sequencer.mem-master-port::system.pc.com_1.pio          162                       # Packet count per connected master and slave (bytes)
system.iobus.pkt_count_system.ruby.l1_cntrl1.sequencer.mem-master-port::system.ruby.l1_cntrl0.sequencer.pio-slave-port            2                       # Packet count per connected master and slave (bytes)
system.iobus.pkt_count_system.ruby.l1_cntrl1.sequencer.mem-master-port::system.ruby.l1_cntrl1.sequencer.pio-slave-port         2006                       # Packet count per connected master and slave (bytes)
system.iobus.pkt_count_system.ruby.l1_cntrl1.sequencer.mem-master-port::system.ruby.l1_cntrl2.sequencer.pio-slave-port            2                       # Packet count per connected master and slave (bytes)
system.iobus.pkt_count_system.ruby.l1_cntrl1.sequencer.mem-master-port::total         2232                       # Packet count per connected master and slave (bytes)
system.iobus.pkt_count_system.ruby.l1_cntrl2.sequencer.mem-master-port::system.pc.south_bridge.ide.pio           80                       # Packet count per connected master and slave (bytes)
system.iobus.pkt_count_system.ruby.l1_cntrl2.sequencer.mem-master-port::system.pc.south_bridge.io_apic.pio           16                       # Packet count per connected master and slave (bytes)
system.iobus.pkt_count_system.ruby.l1_cntrl2.sequencer.mem-master-port::system.ruby.l1_cntrl1.sequencer.pio-slave-port            2                       # Packet count per connected master and slave (bytes)
system.iobus.pkt_count_system.ruby.l1_cntrl2.sequencer.mem-master-port::system.ruby.l1_cntrl2.sequencer.pio-slave-port         2010                       # Packet count per connected master and slave (bytes)
system.iobus.pkt_count_system.ruby.l1_cntrl2.sequencer.mem-master-port::system.ruby.l1_cntrl3.sequencer.pio-slave-port            2                       # Packet count per connected master and slave (bytes)
system.iobus.pkt_count_system.ruby.l1_cntrl2.sequencer.mem-master-port::total         2110                       # Packet count per connected master and slave (bytes)
system.iobus.pkt_count_system.ruby.l1_cntrl3.sequencer.mem-master-port::system.pc.south_bridge.ide.pio           12                       # Packet count per connected master and slave (bytes)
system.iobus.pkt_count_system.ruby.l1_cntrl3.sequencer.mem-master-port::system.pc.south_bridge.io_apic.pio            8                       # Packet count per connected master and slave (bytes)
system.iobus.pkt_count_system.ruby.l1_cntrl3.sequencer.mem-master-port::system.ruby.l1_cntrl0.sequencer.pio-slave-port            2                       # Packet count per connected master and slave (bytes)
system.iobus.pkt_count_system.ruby.l1_cntrl3.sequencer.mem-master-port::system.ruby.l1_cntrl1.sequencer.pio-slave-port            2                       # Packet count per connected master and slave (bytes)
system.iobus.pkt_count_system.ruby.l1_cntrl3.sequencer.mem-master-port::system.ruby.l1_cntrl2.sequencer.pio-slave-port            4                       # Packet count per connected master and slave (bytes)
system.iobus.pkt_count_system.ruby.l1_cntrl3.sequencer.mem-master-port::system.ruby.l1_cntrl3.sequencer.pio-slave-port         2014                       # Packet count per connected master and slave (bytes)
system.iobus.pkt_count_system.ruby.l1_cntrl3.sequencer.mem-master-port::total         2042                       # Packet count per connected master and slave (bytes)
system.iobus.pkt_count::total                    8486                       # Packet count per connected master and slave (bytes)
system.iobus.pkt_size_system.pc.south_bridge.io_apic.int_master::system.ruby.l1_cntrl0.sequencer.pio-slave-port            8                       # Cumulative packet size per connected master and slave (bytes)
system.iobus.pkt_size_system.pc.south_bridge.io_apic.int_master::system.ruby.l1_cntrl1.sequencer.pio-slave-port           12                       # Cumulative packet size per connected master and slave (bytes)
system.iobus.pkt_size_system.pc.south_bridge.io_apic.int_master::system.ruby.l1_cntrl2.sequencer.pio-slave-port           12                       # Cumulative packet size per connected master and slave (bytes)
system.iobus.pkt_size_system.pc.south_bridge.io_apic.int_master::system.ruby.l1_cntrl3.sequencer.pio-slave-port            8                       # Cumulative packet size per connected master and slave (bytes)
system.iobus.pkt_size_system.pc.south_bridge.io_apic.int_master::total           40                       # Cumulative packet size per connected master and slave (bytes)
system.iobus.pkt_size_system.ruby.l1_cntrl0.sequencer.mem-master-port::system.pc.south_bridge.ide.pio           26                       # Cumulative packet size per connected master and slave (bytes)
system.iobus.pkt_size_system.ruby.l1_cntrl0.sequencer.mem-master-port::system.pc.south_bridge.io_apic.pio           12                       # Cumulative packet size per connected master and slave (bytes)
system.iobus.pkt_size_system.ruby.l1_cntrl0.sequencer.mem-master-port::system.pc.com_1.pio           11                       # Cumulative packet size per connected master and slave (bytes)
system.iobus.pkt_size_system.ruby.l1_cntrl0.sequencer.mem-master-port::system.ruby.l1_cntrl0.sequencer.pio-slave-port         4008                       # Cumulative packet size per connected master and slave (bytes)
system.iobus.pkt_size_system.ruby.l1_cntrl0.sequencer.mem-master-port::system.ruby.l1_cntrl1.sequencer.pio-slave-port            4                       # Cumulative packet size per connected master and slave (bytes)
system.iobus.pkt_size_system.ruby.l1_cntrl0.sequencer.mem-master-port::system.ruby.l1_cntrl2.sequencer.pio-slave-port            4                       # Cumulative packet size per connected master and slave (bytes)
system.iobus.pkt_size_system.ruby.l1_cntrl0.sequencer.mem-master-port::total         4065                       # Cumulative packet size per connected master and slave (bytes)
system.iobus.pkt_size_system.ruby.l1_cntrl1.sequencer.mem-master-port::system.pc.south_bridge.ide.pio           26                       # Cumulative packet size per connected master and slave (bytes)
system.iobus.pkt_size_system.ruby.l1_cntrl1.sequencer.mem-master-port::system.pc.south_bridge.io_apic.pio           28                       # Cumulative packet size per connected master and slave (bytes)
system.iobus.pkt_size_system.ruby.l1_cntrl1.sequencer.mem-master-port::system.pc.com_1.pio           81                       # Cumulative packet size per connected master and slave (bytes)
system.iobus.pkt_size_system.ruby.l1_cntrl1.sequencer.mem-master-port::system.ruby.l1_cntrl0.sequencer.pio-slave-port            4                       # Cumulative packet size per connected master and slave (bytes)
system.iobus.pkt_size_system.ruby.l1_cntrl1.sequencer.mem-master-port::system.ruby.l1_cntrl1.sequencer.pio-slave-port         4012                       # Cumulative packet size per connected master and slave (bytes)
system.iobus.pkt_size_system.ruby.l1_cntrl1.sequencer.mem-master-port::system.ruby.l1_cntrl2.sequencer.pio-slave-port            4                       # Cumulative packet size per connected master and slave (bytes)
system.iobus.pkt_size_system.ruby.l1_cntrl1.sequencer.mem-master-port::total         4155                       # Cumulative packet size per connected master and slave (bytes)
system.iobus.pkt_size_system.ruby.l1_cntrl2.sequencer.mem-master-port::system.pc.south_bridge.ide.pio           46                       # Cumulative packet size per connected master and slave (bytes)
system.iobus.pkt_size_system.ruby.l1_cntrl2.sequencer.mem-master-port::system.pc.south_bridge.io_apic.pio           32                       # Cumulative packet size per connected master and slave (bytes)
system.iobus.pkt_size_system.ruby.l1_cntrl2.sequencer.mem-master-port::system.ruby.l1_cntrl1.sequencer.pio-slave-port            4                       # Cumulative packet size per connected master and slave (bytes)
system.iobus.pkt_size_system.ruby.l1_cntrl2.sequencer.mem-master-port::system.ruby.l1_cntrl2.sequencer.pio-slave-port         4020                       # Cumulative packet size per connected master and slave (bytes)
system.iobus.pkt_size_system.ruby.l1_cntrl2.sequencer.mem-master-port::system.ruby.l1_cntrl3.sequencer.pio-slave-port            4                       # Cumulative packet size per connected master and slave (bytes)
system.iobus.pkt_size_system.ruby.l1_cntrl2.sequencer.mem-master-port::total         4106                       # Cumulative packet size per connected master and slave (bytes)
system.iobus.pkt_size_system.ruby.l1_cntrl3.sequencer.mem-master-port::system.pc.south_bridge.ide.pio            6                       # Cumulative packet size per connected master and slave (bytes)
system.iobus.pkt_size_system.ruby.l1_cntrl3.sequencer.mem-master-port::system.pc.south_bridge.io_apic.pio           16                       # Cumulative packet size per connected master and slave (bytes)
system.iobus.pkt_size_system.ruby.l1_cntrl3.sequencer.mem-master-port::system.ruby.l1_cntrl0.sequencer.pio-slave-port            4                       # Cumulative packet size per connected master and slave (bytes)
system.iobus.pkt_size_system.ruby.l1_cntrl3.sequencer.mem-master-port::system.ruby.l1_cntrl1.sequencer.pio-slave-port            4                       # Cumulative packet size per connected master and slave (bytes)
system.iobus.pkt_size_system.ruby.l1_cntrl3.sequencer.mem-master-port::system.ruby.l1_cntrl2.sequencer.pio-slave-port            8                       # Cumulative packet size per connected master and slave (bytes)
system.iobus.pkt_size_system.ruby.l1_cntrl3.sequencer.mem-master-port::system.ruby.l1_cntrl3.sequencer.pio-slave-port         4028                       # Cumulative packet size per connected master and slave (bytes)
system.iobus.pkt_size_system.ruby.l1_cntrl3.sequencer.mem-master-port::total         4066                       # Cumulative packet size per connected master and slave (bytes)
system.iobus.pkt_size::total                    16432                       # Cumulative packet size per connected master and slave (bytes)
system.iobus.reqLayer2.occupancy               166500                       # Layer occupancy (ticks)
system.iobus.reqLayer2.utilization                0.0                       # Layer utilization (%)
system.iobus.reqLayer8.occupancy                37996                       # Layer occupancy (ticks)
system.iobus.reqLayer8.utilization                0.0                       # Layer utilization (%)
system.iobus.reqLayer12.occupancy              121000                       # Layer occupancy (ticks)
system.iobus.reqLayer12.utilization               0.0                       # Layer utilization (%)
system.iobus.reqLayer17.occupancy             2362498                       # Layer occupancy (ticks)
system.iobus.reqLayer17.utilization               0.0                       # Layer utilization (%)
system.iobus.reqLayer18.occupancy             2497498                       # Layer occupancy (ticks)
system.iobus.reqLayer18.utilization               0.0                       # Layer utilization (%)
system.iobus.reqLayer19.occupancy             2510494                       # Layer occupancy (ticks)
system.iobus.reqLayer19.utilization               0.0                       # Layer utilization (%)
system.iobus.reqLayer20.occupancy             2279481                       # Layer occupancy (ticks)
system.iobus.reqLayer20.utilization               0.0                       # Layer utilization (%)
system.iobus.respLayer0.occupancy               13996                       # Layer occupancy (ticks)
system.iobus.respLayer0.utilization               0.0                       # Layer utilization (%)
system.iobus.respLayer2.occupancy             1561000                       # Layer occupancy (ticks)
system.iobus.respLayer2.utilization               0.0                       # Layer utilization (%)
system.iobus.respLayer4.occupancy             1689500                       # Layer occupancy (ticks)
system.iobus.respLayer4.utilization               0.0                       # Layer utilization (%)
system.iobus.respLayer6.occupancy             1575500                       # Layer occupancy (ticks)
system.iobus.respLayer6.utilization               0.0                       # Layer utilization (%)
system.iobus.respLayer8.occupancy             1536000                       # Layer occupancy (ticks)
system.iobus.respLayer8.utilization               0.0                       # Layer utilization (%)
system.pc.south_bridge.ide.disks.dma_read_full_pages            1                       # Number of full page size DMA reads (not PRD).
system.pc.south_bridge.ide.disks.dma_read_bytes         4096                       # Number of bytes transfered via DMA reads (not PRD).
system.pc.south_bridge.ide.disks.dma_read_txs            1                       # Number of DMA read transactions (not PRD).
system.pc.south_bridge.ide.disks.dma_write_full_pages           45                       # Number of full page size DMA writes.
system.pc.south_bridge.ide.disks.dma_write_bytes       184320                       # Number of bytes transfered via DMA writes.
system.pc.south_bridge.ide.disks.dma_write_txs           45                       # Number of DMA write transactions.
system.ruby.clk_domain.clock                      500                       # Clock period in ticks
system.ruby.delayHist::bucket_size                  2                       # delay histogram for all message
[...]
system.ruby.LD.Directory.miss_type_mach_latency_hist_seqr::total      5661869                      
system.ruby.ST.L1Cache.miss_type_mach_latency_hist_seqr::bucket_size            8                      
system.ruby.ST.L1Cache.miss_type_mach_latency_hist_seqr::max_bucket           79                      
system.ruby.ST.L1Cache.miss_type_mach_latency_hist_seqr::samples         7307                      
system.ruby.ST.L1Cache.miss_type_mach_latency_hist_seqr::mean    46.391953                      
system.ruby.ST.L1Cache.miss_type_mach_latency_hist_seqr::gmean    46.350691                      
system.ruby.ST.L1Cache.miss_type_mach_latency_hist_seqr::stdev     1.984661                      
system.ruby.ST.L1Cache.miss_type_mach_latency_hist_seqr |           0      0.00%      0.00% |           0      0.00%      0.00% |           0      0.00%      0.00% |           0      0.00%      0.00% |           0      0.00%      0.00% |        4819     65.95%     65.95% |        2479     33.93%     99.88% |           9      0.12%    100.00% |           0      0.00%    100.00% |           0      0.00%    100.00%
system.ruby.ST.L1Cache.miss_type_mach_latency_hist_seqr::total         7307                      
system.ruby.ST.Directory.miss_type_mach_latency_hist_seqr::bucket_size          128                      
system.ruby.ST.Directory.miss_type_mach_latency_hist_seqr::max_bucket         1279                      
system.ruby.ST.Directory.miss_type_mach_latency_hist_seqr::samples      3731962                      
system.ruby.ST.Directory.miss_type_mach_latency_hist_seqr::mean   121.933758                      
system.ruby.ST.Directory.miss_type_mach_latency_hist_seqr::gmean   110.053438                      
system.ruby.ST.Directory.miss_type_mach_latency_hist_seqr::stdev    75.555500                      
system.ruby.ST.Directory.miss_type_mach_latency_hist_seqr |     3285492     88.04%     88.04% |      173506      4.65%     92.69% |      213767      5.73%     98.41% |       22678      0.61%     99.02% |       27133      0.73%     99.75% |        7789      0.21%     99.96% |        1092      0.03%     99.99% |         479      0.01%    100.00% |          26      0.00%    100.00% |           0      0.00%    100.00%
system.ruby.ST.Directory.miss_type_mach_latency_hist_seqr::total      3731962                      
system.ruby.IFETCH.L1Cache.miss_type_mach_latency_hist_seqr::bucket_size           32                      
system.ruby.IFETCH.L1Cache.miss_type_mach_latency_hist_seqr::max_bucket          319                      
system.ruby.IFETCH.L1Cache.miss_type_mach_latency_hist_seqr::samples      1474881                      
system.ruby.IFETCH.L1Cache.miss_type_mach_latency_hist_seqr::mean    45.671646                      
system.ruby.IFETCH.L1Cache.miss_type_mach_latency_hist_seqr::gmean    45.647464                      
system.ruby.IFETCH.L1Cache.miss_type_mach_latency_hist_seqr::stdev     1.530944                      
system.ruby.IFETCH.L1Cache.miss_type_mach_latency_hist_seqr |           0      0.00%      0.00% |     1474869    100.00%    100.00% |           4      0.00%    100.00% |           5      0.00%    100.00% |           1      0.00%    100.00% |           1      0.00%    100.00% |           0      0.00%    100.00% |           0      0.00%    100.00% |           1      0.00%    100.00% |           0      0.00%    100.00%
system.ruby.IFETCH.L1Cache.miss_type_mach_latency_hist_seqr::total      1474881                      
system.ruby.IFETCH.Directory.miss_type_mach_latency_hist_seqr::bucket_size          128                      
system.ruby.IFETCH.Directory.miss_type_mach_latency_hist_seqr::max_bucket         1279                      
system.ruby.IFETCH.Directory.miss_type_mach_latency_hist_seqr::samples      3271230                      
system.ruby.IFETCH.Directory.miss_type_mach_latency_hist_seqr::mean   126.145825                      
system.ruby.IFETCH.Directory.miss_type_mach_latency_hist_seqr::gmean   114.918705                      
system.ruby.IFETCH.Directory.miss_type_mach_latency_hist_seqr::stdev    74.092397                      
system.ruby.IFETCH.Directory.miss_type_mach_latency_hist_seqr |     2753945     84.19%     84.19% |      282805      8.65%     92.83% |      187176      5.72%     98.55% |       14659      0.45%     99.00% |       24140      0.74%     99.74% |        6987      0.21%     99.95% |         978      0.03%     99.98% |         508      0.02%    100.00% |          32      0.00%    100.00% |           0      0.00%    100.00%
system.ruby.IFETCH.Directory.miss_type_mach_latency_hist_seqr::total      3271230                      
system.ruby.RMW_Read.L1Cache.miss_type_mach_latency_hist_seqr::bucket_size            8                      
system.ruby.RMW_Read.L1Cache.miss_type_mach_latency_hist_seqr::max_bucket           79                      
system.ruby.RMW_Read.L1Cache.miss_type_mach_latency_hist_seqr::samples         3345                      
system.ruby.RMW_Read.L1Cache.miss_type_mach_latency_hist_seqr::mean    45.295366                      
system.ruby.RMW_Read.L1Cache.miss_type_mach_latency_hist_seqr::gmean    45.275949                      
system.ruby.RMW_Read.L1Cache.miss_type_mach_latency_hist_seqr::stdev     1.417401                      
system.ruby.RMW_Read.L1Cache.miss_type_mach_latency_hist_seqr |           0      0.00%      0.00% |           0      0.00%      0.00% |           0      0.00%      0.00% |           0      0.00%      0.00% |           0      0.00%      0.00% |        3184     95.19%     95.19% |         144      4.30%     99.49% |          15      0.45%     99.94% |           2      0.06%    100.00% |           0      0.00%    100.00%
system.ruby.RMW_Read.L1Cache.miss_type_mach_latency_hist_seqr::total         3345                      
system.ruby.RMW_Read.Directory.miss_type_mach_latency_hist_seqr::bucket_size          128                      
system.ruby.RMW_Read.Directory.miss_type_mach_latency_hist_seqr::max_bucket         1279                      
system.ruby.RMW_Read.Directory.miss_type_mach_latency_hist_seqr::samples        23936                      
system.ruby.RMW_Read.Directory.miss_type_mach_latency_hist_seqr::mean   142.627924                      
system.ruby.RMW_Read.Directory.miss_type_mach_latency_hist_seqr::gmean   131.709870                      
system.ruby.RMW_Read.Directory.miss_type_mach_latency_hist_seqr::stdev    76.082906                      
system.ruby.RMW_Read.Directory.miss_type_mach_latency_hist_seqr |       17171     71.74%     71.74% |        4858     20.30%     92.03% |        1493      6.24%     98.27% |         161      0.67%     98.94% |         187      0.78%     99.72% |          58      0.24%     99.97% |           4      0.02%     99.98% |           4      0.02%    100.00% |           0      0.00%    100.00% |           0      0.00%    100.00%
system.ruby.RMW_Read.Directory.miss_type_mach_latency_hist_seqr::total        23936                      
system.ruby.Locked_RMW_Read.L1Cache.miss_type_mach_latency_hist_seqr::bucket_size            8                      
system.ruby.Locked_RMW_Read.L1Cache.miss_type_mach_latency_hist_seqr::max_bucket           79                      
system.ruby.Locked_RMW_Read.L1Cache.miss_type_mach_latency_hist_seqr::samples        12737                      
system.ruby.Locked_RMW_Read.L1Cache.miss_type_mach_latency_hist_seqr::mean    45.442804                      
system.ruby.Locked_RMW_Read.L1Cache.miss_type_mach_latency_hist_seqr::gmean    45.426308                      
system.ruby.Locked_RMW_Read.L1Cache.miss_type_mach_latency_hist_seqr::stdev     1.253468                      
system.ruby.Locked_RMW_Read.L1Cache.miss_type_mach_latency_hist_seqr |           0      0.00%      0.00% |           0      0.00%      0.00% |           0      0.00%      0.00% |           0      0.00%      0.00% |           0      0.00%      0.00% |       11369     89.26%     89.26% |        1367     10.73%     99.99% |           1      0.01%    100.00% |           0      0.00%    100.00% |           0      0.00%    100.00%
system.ruby.Locked_RMW_Read.L1Cache.miss_type_mach_latency_hist_seqr::total        12737                      
system.ruby.Locked_RMW_Read.Directory.miss_type_mach_latency_hist_seqr::bucket_size          128                      
system.ruby.Locked_RMW_Read.Directory.miss_type_mach_latency_hist_seqr::max_bucket         1279                      
system.ruby.Locked_RMW_Read.Directory.miss_type_mach_latency_hist_seqr::samples         3935                      
system.ruby.Locked_RMW_Read.Directory.miss_type_mach_latency_hist_seqr::mean   145.043964                      
system.ruby.Locked_RMW_Read.Directory.miss_type_mach_latency_hist_seqr::gmean   133.469926                      
system.ruby.Locked_RMW_Read.Directory.miss_type_mach_latency_hist_seqr::stdev    77.191414                      
system.ruby.Locked_RMW_Read.Directory.miss_type_mach_latency_hist_seqr |        2322     59.01%     59.01% |        1328     33.75%     92.76% |         206      5.24%     97.99% |          30      0.76%     98.75% |          39      0.99%     99.75% |           8      0.20%     99.95% |           2      0.05%    100.00% |           0      0.00%    100.00% |           0      0.00%    100.00% |           0      0.00%    100.00%
system.ruby.Locked_RMW_Read.Directory.miss_type_mach_latency_hist_seqr::total         3935                      
system.ruby.Directory_Controller.GETX         7430448      0.00%      0.00%
system.ruby.Directory_Controller.PUTX         6420451      0.00%      0.00%
system.ruby.Directory_Controller.PUTX_NotOwner            4      0.00%      0.00%
system.ruby.Directory_Controller.DMA_READ          112      0.00%      0.00%
system.ruby.Directory_Controller.DMA_WRITE         3008      0.00%      0.00%
system.ruby.Directory_Controller.Memory_Data      6420605      0.00%      0.00%
system.ruby.Directory_Controller.Memory_Ack      6423451      0.00%      0.00%
system.ruby.Directory_Controller.I.GETX       6420504      0.00%      0.00%
system.ruby.Directory_Controller.I.DMA_READ          101      0.00%      0.00%
system.ruby.Directory_Controller.I.DMA_WRITE         3000      0.00%      0.00%
system.ruby.Directory_Controller.M.GETX       1009823      0.00%      0.00%
system.ruby.Directory_Controller.M.PUTX       6420432      0.00%      0.00%
system.ruby.Directory_Controller.M.PUTX_NotOwner            4      0.00%      0.00%
system.ruby.Directory_Controller.M.DMA_READ           11      0.00%      0.00%
system.ruby.Directory_Controller.M.DMA_WRITE            8      0.00%      0.00%
system.ruby.Directory_Controller.M_DRD.PUTX           11      0.00%      0.00%
system.ruby.Directory_Controller.M_DWR.PUTX            8      0.00%      0.00%
system.ruby.Directory_Controller.M_DWRI.Memory_Ack            8      0.00%      0.00%
system.ruby.Directory_Controller.M_DRDI.Memory_Ack           11      0.00%      0.00%
system.ruby.Directory_Controller.IM.GETX          117      0.00%      0.00%
system.ruby.Directory_Controller.IM.Memory_Data      6420504      0.00%      0.00%
system.ruby.Directory_Controller.MI.GETX            4      0.00%      0.00%
system.ruby.Directory_Controller.MI.Memory_Ack      6420432      0.00%      0.00%
system.ruby.Directory_Controller.ID.Memory_Data          101      0.00%      0.00%
system.ruby.Directory_Controller.ID_W.Memory_Ack         3000      0.00%      0.00%
system.ruby.DMA_Controller.ReadRequest   |         112    100.00%    100.00% |           0      0.00%    100.00%
system.ruby.DMA_Controller.ReadRequest::total          112                      
system.ruby.DMA_Controller.WriteRequest  |        3008    100.00%    100.00% |           0      0.00%    100.00%
system.ruby.DMA_Controller.WriteRequest::total         3008                      
system.ruby.DMA_Controller.Data          |         112    100.00%    100.00% |           0      0.00%    100.00%
system.ruby.DMA_Controller.Data::total            112                      
system.ruby.DMA_Controller.Ack           |        3008    100.00%    100.00% |           0      0.00%    100.00%
system.ruby.DMA_Controller.Ack::total            3008                      
system.ruby.DMA_Controller.READY.ReadRequest |         112    100.00%    100.00% |           0      0.00%    100.00%
system.ruby.DMA_Controller.READY.ReadRequest::total          112                      
system.ruby.DMA_Controller.READY.WriteRequest |        3008    100.00%    100.00% |           0      0.00%    100.00%
system.ruby.DMA_Controller.READY.WriteRequest::total         3008                      
system.ruby.DMA_Controller.BUSY_RD.Data  |         112    100.00%    100.00% |           0      0.00%    100.00%
system.ruby.DMA_Controller.BUSY_RD.Data::total          112                      
system.ruby.DMA_Controller.BUSY_WR.Ack   |        3008    100.00%    100.00% |           0      0.00%    100.00%
system.ruby.DMA_Controller.BUSY_WR.Ack::total         3008                      
system.ruby.L1Cache_Controller.Load      |     1198936      0.21%      0.21% |     1669935      0.29%      0.50% |     6336649      1.10%      1.60% |   566411708     98.40%    100.00%
system.ruby.L1Cache_Controller.Load::total    575617228                      
system.ruby.L1Cache_Controller.Ifetch    |     5526417      0.00%      0.00% |     8323768      0.00%      0.00% |    30979686      0.00%      0.00% |18446744072221687808    100.00%    100.00%
system.ruby.L1Cache_Controller.Ifetch::total 18446744072266518528                      
system.ruby.L1Cache_Controller.Store     |      880313      0.50%      0.50% |     1211256      0.68%      1.18% |     2644158      1.49%      2.67% |   172342823     97.33%    100.00%
system.ruby.L1Cache_Controller.Store::total    177078550                      
system.ruby.L1Cache_Controller.Data      |      302064      4.07%      4.07% |      352380      4.74%      8.81% |      387929      5.22%     14.03% |     6387954     85.97%    100.00%
system.ruby.L1Cache_Controller.Data::total      7430327                      
system.ruby.L1Cache_Controller.Fwd_GETX  |      280811     27.81%     27.81% |      278237     27.55%     55.36% |      280459     27.77%     83.13% |      170316     16.87%    100.00%
system.ruby.L1Cache_Controller.Fwd_GETX::total      1009823                      
system.ruby.L1Cache_Controller.Inv       |           4     10.53%     10.53% |           8     21.05%     31.58% |          10     26.32%     57.89% |          16     42.11%    100.00%
system.ruby.L1Cache_Controller.Inv::total           38                      
system.ruby.L1Cache_Controller.Replacement |       26742      0.41%      0.41% |       81127      1.24%      1.64% |      116293      1.77%      3.41% |     6344245     96.59%    100.00%
system.ruby.L1Cache_Controller.Replacement::total      6568407                      
system.ruby.L1Cache_Controller.Writeback_Ack |       21753      0.34%      0.34% |       73923      1.15%      1.49% |      107635      1.68%      3.17% |     6217140     96.83%    100.00%
system.ruby.L1Cache_Controller.Writeback_Ack::total      6420451                      
system.ruby.L1Cache_Controller.Writeback_Nack |           0      0.00%      0.00% |           0      0.00%      0.00% |           0      0.00%      0.00% |           4    100.00%    100.00%
system.ruby.L1Cache_Controller.Writeback_Nack::total            4                      
system.ruby.L1Cache_Controller.I.Load    |       64464      2.10%      2.10% |       90959      2.97%      5.07% |      102945      3.36%      8.43% |     2806651     91.57%    100.00%
system.ruby.L1Cache_Controller.I.Load::total      3065019                      
system.ruby.L1Cache_Controller.I.Ifetch  |      227267      9.26%      9.26% |      242670      9.89%     19.15% |      255134     10.40%     29.55% |     1728769     70.45%    100.00%
system.ruby.L1Cache_Controller.I.Ifetch::total      2453840                      
system.ruby.L1Cache_Controller.I.Store   |       10333      0.54%      0.54% |       18751      0.98%      1.52% |       29850      1.56%      3.08% |     1852534     96.92%    100.00%
system.ruby.L1Cache_Controller.I.Store::total      1911468                      
system.ruby.L1Cache_Controller.I.Replacement |        4991      3.37%      3.37% |        7208      4.87%      8.24% |        8663      5.85%     14.10% |      127109     85.90%    100.00%
system.ruby.L1Cache_Controller.I.Replacement::total       147971                      
system.ruby.L1Cache_Controller.II.Writeback_Nack |           0      0.00%      0.00% |           0      0.00%      0.00% |           0      0.00%      0.00% |           4    100.00%    100.00%
system.ruby.L1Cache_Controller.II.Writeback_Nack::total            4                      
system.ruby.L1Cache_Controller.M.Load    |     1134472      0.20%      0.20% |     1578976      0.28%      0.47% |     6233704      1.09%      1.56% |   563605057     98.44%    100.00%
system.ruby.L1Cache_Controller.M.Load::total    572552209                      
system.ruby.L1Cache_Controller.M.Ifetch  |     5299150      0.00%      0.00% |     8081098      0.00%      0.00% |    30724552      0.00%      0.00% |18446744072219959296    100.00%    100.00%
system.ruby.L1Cache_Controller.M.Ifetch::total 18446744072264065024                      
system.ruby.L1Cache_Controller.M.Store   |      869980      0.50%      0.50% |     1192505      0.68%      1.18% |     2614308      1.49%      2.67% |   170490289     97.33%    100.00%
system.ruby.L1Cache_Controller.M.Store::total    175167082                      
system.ruby.L1Cache_Controller.M.Fwd_GETX |      280811     27.81%     27.81% |      278237     27.55%     55.36% |      280459     27.77%     83.13% |      170312     16.87%    100.00%
system.ruby.L1Cache_Controller.M.Fwd_GETX::total      1009819                      
system.ruby.L1Cache_Controller.M.Inv     |           2     10.53%     10.53% |           4     21.05%     31.58% |           5     26.32%     57.89% |           8     42.11%    100.00%
system.ruby.L1Cache_Controller.M.Inv::total           19                      
system.ruby.L1Cache_Controller.M.Replacement |       21751      0.34%      0.34% |       73919      1.15%      1.49% |      107630      1.68%      3.17% |     6217136     96.83%    100.00%
system.ruby.L1Cache_Controller.M.Replacement::total      6420436                      
system.ruby.L1Cache_Controller.MI.Fwd_GETX |           0      0.00%      0.00% |           0      0.00%      0.00% |           0      0.00%      0.00% |           4    100.00%    100.00%
system.ruby.L1Cache_Controller.MI.Fwd_GETX::total            4                      
system.ruby.L1Cache_Controller.MI.Inv    |           2     10.53%     10.53% |           4     21.05%     31.58% |           5     26.32%     57.89% |           8     42.11%    100.00%
system.ruby.L1Cache_Controller.MI.Inv::total           19                      
system.ruby.L1Cache_Controller.MI.Writeback_Ack |       21753      0.34%      0.34% |       73923      1.15%      1.49% |      107635      1.68%      3.17% |     6217140     96.83%    100.00%
system.ruby.L1Cache_Controller.MI.Writeback_Ack::total      6420451                      
system.ruby.L1Cache_Controller.IS.Data   |      291731      5.29%      5.29% |      333629      6.05%     11.33% |      358079      6.49%     17.82% |     4535420     82.18%    100.00%
system.ruby.L1Cache_Controller.IS.Data::total      5518859                      
system.ruby.L1Cache_Controller.IM.Data   |       10333      0.54%      0.54% |       18751      0.98%      1.52% |       29850      1.56%      3.08% |     1852534     96.92%    100.00%
system.ruby.L1Cache_Controller.IM.Data::total      1911468                      

---------- End Simulation Statistics   ----------
