
---------- Begin Simulation Statistics ----------
sim_seconds                                  0.462297                       # Number of seconds simulated
sim_ticks                                462296557500                       # Number of ticks simulated
final_tick                               52778103625501                       # Number of ticks from beginning of simulation (restored from checkpoints and never reset)
sim_freq                                 1000000000000                       # Frequency of simulated ticks
host_inst_rate                                 130071                       # Simulator instruction rate (inst/s)
host_op_rate                                   234755                       # Simulator op (including micro ops) rate (op/s)
host_tick_rate                              223577571                       # Simulator tick rate (ticks/s)
host_mem_usage                                1831096                       # Number of bytes of host memory used
host_seconds                                  2067.72                       # Real time elapsed on the host
sim_insts                                   268951170                       # Number of instructions simulated
sim_ops                                     485408327                       # Number of ops (including micro ops) simulated
system.voltage_domain.voltage                       1                       # Voltage in Volts
system.clk_domain.clock                          1000                       # Clock period in ticks
system.mem_ctrls.bytes_read::ruby.dir_cntrl0       444864                       # Number of bytes read from this memory
system.mem_ctrls.bytes_read::total             444864                       # Number of bytes read from this memory
system.mem_ctrls.bytes_written::ruby.dir_cntrl0       189120                       # Number of bytes written to this memory
system.mem_ctrls.bytes_written::total          189120                       # Number of bytes written to this memory
system.mem_ctrls.num_reads::ruby.dir_cntrl0         6951                       # Number of read requests responded to by this memory
system.mem_ctrls.num_reads::total                6951                       # Number of read requests responded to by this memory
system.mem_ctrls.num_writes::ruby.dir_cntrl0         2955                       # Number of write requests responded to by this memory
system.mem_ctrls.num_writes::total               2955                       # Number of write requests responded to by this memory
system.mem_ctrls.bw_read::ruby.dir_cntrl0       962291                       # Total read bandwidth from this memory (bytes/s)
system.mem_ctrls.bw_read::total                962291                       # Total read bandwidth from this memory (bytes/s)
system.mem_ctrls.bw_write::ruby.dir_cntrl0       409088                       # Write bandwidth from this memory (bytes/s)
system.mem_ctrls.bw_write::total               409088                       # Write bandwidth from this memory (bytes/s)
system.mem_ctrls.bw_total::ruby.dir_cntrl0      1371379                       # Total bandwidth to/from this memory (bytes/s)
system.mem_ctrls.bw_total::total              1371379                       # Total bandwidth to/from this memory (bytes/s)
system.mem_ctrls.readReqs                        6951                       # Number of read requests accepted
system.mem_ctrls.writeReqs                       2955                       # Number of write requests accepted
system.mem_ctrls.readBursts                      6951                       # Number of DRAM read bursts, including those serviced by the write queue
system.mem_ctrls.writeBursts                     2955                       # Number of DRAM write bursts, including those merged in the write queue
system.mem_ctrls.bytesReadDRAM                 443712                       # Total number of bytes read from DRAM
system.mem_ctrls.bytesReadWrQ                    1152                       # Total number of bytes read from write queue
system.mem_ctrls.bytesWritten                  187840                       # Total number of bytes written to DRAM
system.mem_ctrls.bytesReadSys                  444864                       # Total read bytes from the system interface side
system.mem_ctrls.bytesWrittenSys               189120                       # Total written bytes from the system interface side
system.mem_ctrls.servicedByWrQ                     18                       # Number of DRAM read bursts serviced by the write queue
system.mem_ctrls.mergedWrBursts                     2                       # Number of DRAM write bursts merged with an existing one
system.mem_ctrls.neitherReadNorWriteReqs            0                       # Number of requests that are neither read nor write
system.mem_ctrls.perBankRdBursts::0               469                       # Per bank write bursts
system.mem_ctrls.perBankRdBursts::1               442                       # Per bank write bursts
system.mem_ctrls.perBankRdBursts::2               458                       # Per bank write bursts
system.mem_ctrls.perBankRdBursts::3               357                       # Per bank write bursts
system.mem_ctrls.perBankRdBursts::4               604                       # Per bank write bursts
system.mem_ctrls.perBankRdBursts::5               315                       # Per bank write bursts
system.mem_ctrls.perBankRdBursts::6               421                       # Per bank write bursts
system.mem_ctrls.perBankRdBursts::7               470                       # Per bank write bursts
system.mem_ctrls.perBankRdBursts::8               409                       # Per bank write bursts
system.mem_ctrls.perBankRdBursts::9               533                       # Per bank write bursts
system.mem_ctrls.perBankRdBursts::10              394                       # Per bank write bursts
system.mem_ctrls.perBankRdBursts::11              416                       # Per bank write bursts
system.mem_ctrls.perBankRdBursts::12              352                       # Per bank write bursts
system.mem_ctrls.perBankRdBursts::13              451                       # Per bank write bursts
system.mem_ctrls.perBankRdBursts::14              558                       # Per bank write bursts
system.mem_ctrls.perBankRdBursts::15              284                       # Per bank write bursts
system.mem_ctrls.perBankWrBursts::0               131                       # Per bank write bursts
system.mem_ctrls.perBankWrBursts::1               257                       # Per bank write bursts
system.mem_ctrls.perBankWrBursts::2               196                       # Per bank write bursts
system.mem_ctrls.perBankWrBursts::3               128                       # Per bank write bursts
system.mem_ctrls.perBankWrBursts::4               320                       # Per bank write bursts
system.mem_ctrls.perBankWrBursts::5               320                       # Per bank write bursts
system.mem_ctrls.perBankWrBursts::6               128                       # Per bank write bursts
system.mem_ctrls.perBankWrBursts::7               321                       # Per bank write bursts
system.mem_ctrls.perBankWrBursts::8               192                       # Per bank write bursts
system.mem_ctrls.perBankWrBursts::9               192                       # Per bank write bursts
system.mem_ctrls.perBankWrBursts::10              128                       # Per bank write bursts
system.mem_ctrls.perBankWrBursts::11              109                       # Per bank write bursts
system.mem_ctrls.perBankWrBursts::12               64                       # Per bank write bursts
system.mem_ctrls.perBankWrBursts::13              128                       # Per bank write bursts
system.mem_ctrls.perBankWrBursts::14              128                       # Per bank write bursts
system.mem_ctrls.perBankWrBursts::15              193                       # Per bank write bursts
system.mem_ctrls.numRdRetry                         0                       # Number of times read queue was full causing retry
system.mem_ctrls.numWrRetry                         0                       # Number of times write queue was full causing retry
system.mem_ctrls.totGap                  462296492500                       # Total gap between requests
system.mem_ctrls.readPktSize::0                     0                       # Read request sizes (log2)
system.mem_ctrls.readPktSize::1                     0                       # Read request sizes (log2)
system.mem_ctrls.readPktSize::2                     0                       # Read request sizes (log2)
system.mem_ctrls.readPktSize::3                     0                       # Read request sizes (log2)
system.mem_ctrls.readPktSize::4                     0                       # Read request sizes (log2)
system.mem_ctrls.readPktSize::5                     0                       # Read request sizes (log2)
system.mem_ctrls.readPktSize::6                  6951                       # Read request sizes (log2)
system.mem_ctrls.writePktSize::0                    0                       # Write request sizes (log2)
system.mem_ctrls.writePktSize::1                    0                       # Write request sizes (log2)
system.mem_ctrls.writePktSize::2                    0                       # Write request sizes (log2)
system.mem_ctrls.writePktSize::3                    0                       # Write request sizes (log2)
system.mem_ctrls.writePktSize::4                    0                       # Write request sizes (log2)
system.mem_ctrls.writePktSize::5                    0                       # Write request sizes (log2)
system.mem_ctrls.writePktSize::6                 2955                       # Write request sizes (log2)
system.mem_ctrls.rdQLenPdf::0                    6752                       # What read queue length does an incoming req see
system.mem_ctrls.rdQLenPdf::1                     181                       # What read queue length does an incoming req see
system.mem_ctrls.rdQLenPdf::2                       0                       # What read queue length does an incoming req see
system.mem_ctrls.rdQLenPdf::3                       0                       # What read queue length does an incoming req see
system.mem_ctrls.rdQLenPdf::4                       0                       # What read queue length does an incoming req see
system.mem_ctrls.rdQLenPdf::5                       0                       # What read queue length does an incoming req see
system.mem_ctrls.rdQLenPdf::6                       0                       # What read queue length does an incoming req see
system.mem_ctrls.rdQLenPdf::7                       0                       # What read queue length does an incoming req see
system.mem_ctrls.rdQLenPdf::8                       0                       # What read queue length does an incoming req see
system.mem_ctrls.rdQLenPdf::9                       0                       # What read queue length does an incoming req see
system.mem_ctrls.rdQLenPdf::10                      0                       # What read queue length does an incoming req see
system.mem_ctrls.rdQLenPdf::11                      0                       # What read queue length does an incoming req see
system.mem_ctrls.rdQLenPdf::12                      0                       # What read queue length does an incoming req see
system.mem_ctrls.rdQLenPdf::13                      0                       # What read queue length does an incoming req see
system.mem_ctrls.rdQLenPdf::14                      0                       # What read queue length does an incoming req see
system.mem_ctrls.rdQLenPdf::15                      0                       # What read queue length does an incoming req see
system.mem_ctrls.rdQLenPdf::16                      0                       # What read queue length does an incoming req see
system.mem_ctrls.rdQLenPdf::17                      0                       # What read queue length does an incoming req see
system.mem_ctrls.rdQLenPdf::18                      0                       # What read queue length does an incoming req see
system.mem_ctrls.rdQLenPdf::19                      0                       # What read queue length does an incoming req see
system.mem_ctrls.rdQLenPdf::20                      0                       # What read queue length does an incoming req see
system.mem_ctrls.rdQLenPdf::21                      0                       # What read queue length does an incoming req see
system.mem_ctrls.rdQLenPdf::22                      0                       # What read queue length does an incoming req see
system.mem_ctrls.rdQLenPdf::23                      0                       # What read queue length does an incoming req see
system.mem_ctrls.rdQLenPdf::24                      0                       # What read queue length does an incoming req see
system.mem_ctrls.rdQLenPdf::25                      0                       # What read queue length does an incoming req see
system.mem_ctrls.rdQLenPdf::26                      0                       # What read queue length does an incoming req see
system.mem_ctrls.rdQLenPdf::27                      0                       # What read queue length does an incoming req see
system.mem_ctrls.rdQLenPdf::28                      0                       # What read queue length does an incoming req see
system.mem_ctrls.rdQLenPdf::29                      0                       # What read queue length does an incoming req see
system.mem_ctrls.rdQLenPdf::30                      0                       # What read queue length does an incoming req see
system.mem_ctrls.rdQLenPdf::31                      0                       # What read queue length does an incoming req see
system.mem_ctrls.wrQLenPdf::0                       1                       # What write queue length does an incoming req see
system.mem_ctrls.wrQLenPdf::1                       1                       # What write queue length does an incoming req see
system.mem_ctrls.wrQLenPdf::2                       1                       # What write queue length does an incoming req see
system.mem_ctrls.wrQLenPdf::3                       1                       # What write queue length does an incoming req see
system.mem_ctrls.wrQLenPdf::4                       1                       # What write queue length does an incoming req see
system.mem_ctrls.wrQLenPdf::5                       1                       # What write queue length does an incoming req see
system.mem_ctrls.wrQLenPdf::6                       1                       # What write queue length does an incoming req see
system.mem_ctrls.wrQLenPdf::7                       1                       # What write queue length does an incoming req see
system.mem_ctrls.wrQLenPdf::8                       1                       # What write queue length does an incoming req see
system.mem_ctrls.wrQLenPdf::9                       1                       # What write queue length does an incoming req see
system.mem_ctrls.wrQLenPdf::10                      1                       # What write queue length does an incoming req see
system.mem_ctrls.wrQLenPdf::11                      1                       # What write queue length does an incoming req see
system.mem_ctrls.wrQLenPdf::12                      1                       # What write queue length does an incoming req see
system.mem_ctrls.wrQLenPdf::13                      1                       # What write queue length does an incoming req see
system.mem_ctrls.wrQLenPdf::14                      1                       # What write queue length does an incoming req see
system.mem_ctrls.wrQLenPdf::15                    137                       # What write queue length does an incoming req see
system.mem_ctrls.wrQLenPdf::16                    158                       # What write queue length does an incoming req see
system.mem_ctrls.wrQLenPdf::17                    175                       # What write queue length does an incoming req see
system.mem_ctrls.wrQLenPdf::18                    168                       # What write queue length does an incoming req see
system.mem_ctrls.wrQLenPdf::19                    162                       # What write queue length does an incoming req see
system.mem_ctrls.wrQLenPdf::20                    233                       # What write queue length does an incoming req see
system.mem_ctrls.wrQLenPdf::21                    174                       # What write queue length does an incoming req see
system.mem_ctrls.wrQLenPdf::22                    165                       # What write queue length does an incoming req see
system.mem_ctrls.wrQLenPdf::23                    172                       # What write queue length does an incoming req see
system.mem_ctrls.wrQLenPdf::24                    153                       # What write queue length does an incoming req see
system.mem_ctrls.wrQLenPdf::25                    159                       # What write queue length does an incoming req see
system.mem_ctrls.wrQLenPdf::26                    171                       # What write queue length does an incoming req see
system.mem_ctrls.wrQLenPdf::27                    152                       # What write queue length does an incoming req see
system.mem_ctrls.wrQLenPdf::28                    151                       # What write queue length does an incoming req see
system.mem_ctrls.wrQLenPdf::29                    149                       # What write queue length does an incoming req see
system.mem_ctrls.wrQLenPdf::30                    151                       # What write queue length does an incoming req see
system.mem_ctrls.wrQLenPdf::31                    149                       # What write queue length does an incoming req see
system.mem_ctrls.wrQLenPdf::32                    145                       # What write queue length does an incoming req see
system.mem_ctrls.wrQLenPdf::33                      4                       # What write queue length does an incoming req see
system.mem_ctrls.wrQLenPdf::34                      3                       # What write queue length does an incoming req see
system.mem_ctrls.wrQLenPdf::35                      3                       # What write queue length does an incoming req see
system.mem_ctrls.wrQLenPdf::36                      1                       # What write queue length does an incoming req see
system.mem_ctrls.wrQLenPdf::37                      1                       # What write queue length does an incoming req see
system.mem_ctrls.wrQLenPdf::38                      1                       # What write queue length does an incoming req see
system.mem_ctrls.wrQLenPdf::39                      1                       # What write queue length does an incoming req see
system.mem_ctrls.wrQLenPdf::40                      0                       # What write queue length does an incoming req see
system.mem_ctrls.wrQLenPdf::41                      0                       # What write queue length does an incoming req see
system.mem_ctrls.wrQLenPdf::42                      0                       # What write queue length does an incoming req see
system.mem_ctrls.wrQLenPdf::43                      0                       # What write queue length does an incoming req see
system.mem_ctrls.wrQLenPdf::44                      0                       # What write queue length does an incoming req see
system.mem_ctrls.wrQLenPdf::45                      0                       # What write queue length does an incoming req see
system.mem_ctrls.wrQLenPdf::46                      0                       # What write queue length does an incoming req see
system.mem_ctrls.wrQLenPdf::47                      0                       # What write queue length does an incoming req see
system.mem_ctrls.wrQLenPdf::48                      0                       # What write queue length does an incoming req see
system.mem_ctrls.wrQLenPdf::49                      0                       # What write queue length does an incoming req see
system.mem_ctrls.wrQLenPdf::50                      0                       # What write queue length does an incoming req see
system.mem_ctrls.wrQLenPdf::51                      0                       # What write queue length does an incoming req see
system.mem_ctrls.wrQLenPdf::52                      0                       # What write queue length does an incoming req see
system.mem_ctrls.wrQLenPdf::53                      0                       # What write queue length does an incoming req see
system.mem_ctrls.wrQLenPdf::54                      0                       # What write queue length does an incoming req see
system.mem_ctrls.wrQLenPdf::55                      0                       # What write queue length does an incoming req see
system.mem_ctrls.wrQLenPdf::56                      0                       # What write queue length does an incoming req see
system.mem_ctrls.wrQLenPdf::57                      0                       # What write queue length does an incoming req see
system.mem_ctrls.wrQLenPdf::58                      0                       # What write queue length does an incoming req see
system.mem_ctrls.wrQLenPdf::59                      0                       # What write queue length does an incoming req see
system.mem_ctrls.wrQLenPdf::60                      0                       # What write queue length does an incoming req see
system.mem_ctrls.wrQLenPdf::61                      0                       # What write queue length does an incoming req see
system.mem_ctrls.wrQLenPdf::62                      0                       # What write queue length does an incoming req see
system.mem_ctrls.wrQLenPdf::63                      0                       # What write queue length does an incoming req see
system.mem_ctrls.bytesPerActivate::samples         2981                       # Bytes accessed per row activation
system.mem_ctrls.bytesPerActivate::mean    211.902046                       # Bytes accessed per row activation
system.mem_ctrls.bytesPerActivate::gmean   125.961601                       # Bytes accessed per row activation
system.mem_ctrls.bytesPerActivate::stdev   281.848655                       # Bytes accessed per row activation
system.mem_ctrls.bytesPerActivate::0-127         1476     49.51%     49.51% # Bytes accessed per row activation
system.mem_ctrls.bytesPerActivate::128-255          918     30.80%     80.31% # Bytes accessed per row activation
system.mem_ctrls.bytesPerActivate::256-383          126      4.23%     84.54% # Bytes accessed per row activation
system.mem_ctrls.bytesPerActivate::384-511           78      2.62%     87.15% # Bytes accessed per row activation
system.mem_ctrls.bytesPerActivate::512-639           56      1.88%     89.03% # Bytes accessed per row activation
system.mem_ctrls.bytesPerActivate::640-767           39      1.31%     90.34% # Bytes accessed per row activation
system.mem_ctrls.bytesPerActivate::768-895           15      0.50%     90.84% # Bytes accessed per row activation
system.mem_ctrls.bytesPerActivate::896-1023           27      0.91%     91.75% # Bytes accessed per row activation
system.mem_ctrls.bytesPerActivate::1024-1151          246      8.25%    100.00% # Bytes accessed per row activation
system.mem_ctrls.bytesPerActivate::total         2981                       # Bytes accessed per row activation
system.mem_ctrls.rdPerTurnAround::samples          143                       # Reads before turning the bus around for writes
system.mem_ctrls.rdPerTurnAround::mean     154.405594                       # Reads before turning the bus around for writes
system.mem_ctrls.rdPerTurnAround::stdev   1405.545512                       # Reads before turning the bus around for writes
system.mem_ctrls.rdPerTurnAround::0-1023          140     97.90%     97.90% # Reads before turning the bus around for writes
system.mem_ctrls.rdPerTurnAround::1024-2047            1      0.70%     98.60% # Reads before turning the bus around for writes
system.mem_ctrls.rdPerTurnAround::3072-4095            1      0.70%     99.30% # Reads before turning the bus around for writes
system.mem_ctrls.rdPerTurnAround::16384-17407            1      0.70%    100.00% # Reads before turning the bus around for writes
system.mem_ctrls.rdPerTurnAround::total           143                       # Reads before turning the bus around for writes
system.mem_ctrls.wrPerTurnAround::samples          143                       # Writes before turning the bus around for reads
system.mem_ctrls.wrPerTurnAround::mean      20.524476                       # Writes before turning the bus around for reads
system.mem_ctrls.wrPerTurnAround::gmean     20.429448                       # Writes before turning the bus around for reads
system.mem_ctrls.wrPerTurnAround::stdev      2.041237                       # Writes before turning the bus around for reads
system.mem_ctrls.wrPerTurnAround::16                6      4.20%      4.20% # Writes before turning the bus around for reads
system.mem_ctrls.wrPerTurnAround::18                4      2.80%      6.99% # Writes before turning the bus around for reads
system.mem_ctrls.wrPerTurnAround::19               33     23.08%     30.07% # Writes before turning the bus around for reads
system.mem_ctrls.wrPerTurnAround::20               21     14.69%     44.76% # Writes before turning the bus around for reads
system.mem_ctrls.wrPerTurnAround::21               55     38.46%     83.22% # Writes before turning the bus around for reads
system.mem_ctrls.wrPerTurnAround::22               10      6.99%     90.21% # Writes before turning the bus around for reads
system.mem_ctrls.wrPerTurnAround::23                8      5.59%     95.80% # Writes before turning the bus around for reads
system.mem_ctrls.wrPerTurnAround::24                2      1.40%     97.20% # Writes before turning the bus around for reads
system.mem_ctrls.wrPerTurnAround::25                1      0.70%     97.90% # Writes before turning the bus around for reads
system.mem_ctrls.wrPerTurnAround::29                2      1.40%     99.30% # Writes before turning the bus around for reads
system.mem_ctrls.wrPerTurnAround::30                1      0.70%    100.00% # Writes before turning the bus around for reads
system.mem_ctrls.wrPerTurnAround::total           143                       # Writes before turning the bus around for reads
system.mem_ctrls.totQLat                     65760999                       # Total ticks spent queuing
system.mem_ctrls.totMemAccLat               195754749                       # Total ticks spent from burst creation until serviced by the DRAM
system.mem_ctrls.totBusLat                   34665000                       # Total ticks spent in databus transfers
system.mem_ctrls.avgQLat                      9485.22                       # Average queueing delay per DRAM burst
system.mem_ctrls.avgBusLat                    5000.00                       # Average bus latency per DRAM burst
system.mem_ctrls.avgMemAccLat                28235.22                       # Average memory access latency per DRAM burst
system.mem_ctrls.avgRdBW                         0.96                       # Average DRAM read bandwidth in MiByte/s
system.mem_ctrls.avgWrBW                         0.41                       # Average achieved write bandwidth in MiByte/s
system.mem_ctrls.avgRdBWSys                      0.96                       # Average system read bandwidth in MiByte/s
system.mem_ctrls.avgWrBWSys                      0.41                       # Average system write bandwidth in MiByte/s
system.mem_ctrls.peakBW                      12800.00                       # Theoretical peak bandwidth in MiByte/s
system.mem_ctrls.busUtil                         0.01                       # Data bus utilization in percentage
system.mem_ctrls.busUtilRead                     0.01                       # Data bus utilization in percentage for reads
system.mem_ctrls.busUtilWrite                    0.00                       # Data bus utilization in percentage for writes
system.mem_ctrls.avgRdQLen                       1.00                       # Average read queue length when enqueuing
system.mem_ctrls.avgWrQLen                      28.37                       # Average write queue length when enqueuing
system.mem_ctrls.readRowHits                     4176                       # Number of row buffer hits during reads
system.mem_ctrls.writeRowHits                    2711                       # Number of row buffer hits during writes
system.mem_ctrls.readRowHitRate                 60.23                       # Row buffer hit rate for reads
system.mem_ctrls.writeRowHitRate                91.80                       # Row buffer hit rate for writes
system.mem_ctrls.avgGap                   46668331.57                       # Average gap between requests
system.mem_ctrls.pageHitRate                    69.66                       # Row buffer hit rate, read and write combined
system.mem_ctrls_0.actEnergy                 25794720                       # Energy for activate commands per rank (pJ)
system.mem_ctrls_0.preEnergy                 14074500                       # Energy for precharge commands per rank (pJ)
system.mem_ctrls_0.readEnergy                89520600                       # Energy for read commands per rank (pJ)
system.mem_ctrls_0.writeEnergy               11670480                       # Energy for write commands per rank (pJ)
system.mem_ctrls_0.refreshEnergy          30406802400                       # Energy for refresh commands per rank (pJ)
system.mem_ctrls_0.actBackEnergy          12848192730                       # Energy for active background per rank (pJ)
system.mem_ctrls_0.preBackEnergy         268053735750                       # Energy for precharge background per rank (pJ)
system.mem_ctrls_0.totalEnergy           311449791180                       # Total energy per rank (pJ)
system.mem_ctrls_0.averagePower            669.007393                       # Core power per rank (mW)
system.mem_ctrls_0.memoryStateTime::IDLE 444697882000                       # Time in different power states
system.mem_ctrls_0.memoryStateTime::REF   15437240000                       # Time in different power states
system.mem_ctrls_0.memoryStateTime::PRE_PDN            0                       # Time in different power states
system.mem_ctrls_0.memoryStateTime::ACT    2161532000                       # Time in different power states
system.mem_ctrls_0.memoryStateTime::ACT_PDN            0                       # Time in different power states
system.mem_ctrls_1.actEnergy                 24426360                       # Energy for activate commands per rank (pJ)
system.mem_ctrls_1.preEnergy                 13327875                       # Energy for precharge commands per rank (pJ)
system.mem_ctrls_1.readEnergy                82703400                       # Energy for read commands per rank (pJ)
system.mem_ctrls_1.writeEnergy                7348320                       # Energy for write commands per rank (pJ)
system.mem_ctrls_1.refreshEnergy          30406802400                       # Energy for refresh commands per rank (pJ)
system.mem_ctrls_1.actBackEnergy          12743214120                       # Energy for active background per rank (pJ)
system.mem_ctrls_1.preBackEnergy         268145822250                       # Energy for precharge background per rank (pJ)
system.mem_ctrls_1.totalEnergy           311423644725                       # Total energy per rank (pJ)
system.mem_ctrls_1.averagePower            668.951229                       # Core power per rank (mW)
system.mem_ctrls_1.memoryStateTime::IDLE 444784524500                       # Time in different power states
system.mem_ctrls_1.memoryStateTime::REF   15437240000                       # Time in different power states
system.mem_ctrls_1.memoryStateTime::PRE_PDN            0                       # Time in different power states
system.mem_ctrls_1.memoryStateTime::ACT    2079029250                       # Time in different power states
system.mem_ctrls_1.memoryStateTime::ACT_PDN            0                       # Time in different power states
system.cpu_voltage_domain.voltage                   1                       # Voltage in Volts
system.cpu_clk_domain.clock                       500                       # Clock period in ticks
system.cpu0.apic_clk_domain.clock                8000                       # Clock period in ticks
system.cpu0.numCycles                       922178794                       # number of cpu cycles simulated
system.cpu0.numWorkItemsStarted                     0                       # number of work items this cpu started
system.cpu0.numWorkItemsCompleted                   0                       # number of work items this cpu completed
system.cpu0.kern.inst.arm                           0                       # number of arm instructions executed
system.cpu0.kern.inst.quiesce                       0                       # number of quiesce instructions executed
system.cpu0.committedInsts                     395121                       # Number of instructions committed
system.cpu0.committedOps                       849371                       # Number of ops (including micro ops) committed
system.cpu0.num_int_alu_accesses               833226                       # Number of integer alu accesses
system.cpu0.num_fp_alu_accesses                    33                       # Number of float alu accesses
system.cpu0.num_func_calls                      25229                       # number of times a function call or return occured
system.cpu0.num_conditional_control_insts        57320                       # number of instructions that are conditional controls
system.cpu0.num_int_insts                      833226                       # number of integer instructions
system.cpu0.num_fp_insts                           33                       # number of float instructions
system.cpu0.num_int_register_reads            1678804                       # number of times the integer registers were read
system.cpu0.num_int_register_writes            685327                       # number of times the integer registers were written
system.cpu0.num_fp_register_reads                  14                       # number of times the floating registers were read
system.cpu0.num_fp_register_writes                 25                       # number of times the floating registers were written
system.cpu0.num_cc_register_reads              463531                       # number of times the CC registers were read
system.cpu0.num_cc_register_writes             258028                       # number of times the CC registers were written
system.cpu0.num_mem_refs                       198058                       # number of memory refs
system.cpu0.num_load_insts                     122359                       # Number of load instructions
system.cpu0.num_store_insts                     75699                       # Number of store instructions
system.cpu0.num_idle_cycles              920368274.052971                       # Number of idle cycles
system.cpu0.num_busy_cycles              1810519.947029                       # Number of busy cycles
system.cpu0.not_idle_fraction                0.001963                       # Percentage of non-idle cycles
system.cpu0.idle_fraction                    0.998037                       # Percentage of idle cycles
system.cpu0.Branches                            90089                       # Number of branches fetched
system.cpu0.op_class::No_OpClass                11644      1.37%      1.37% # Class of executed instruction
system.cpu0.op_class::IntAlu                   634400     74.69%     76.06% # Class of executed instruction
system.cpu0.op_class::IntMult                    1641      0.19%     76.25% # Class of executed instruction
system.cpu0.op_class::IntDiv                     3614      0.43%     76.68% # Class of executed instruction
system.cpu0.op_class::FloatAdd                     17      0.00%     76.68% # Class of executed instruction
system.cpu0.op_class::FloatCmp                      0      0.00%     76.68% # Class of executed instruction
system.cpu0.op_class::FloatCvt                      0      0.00%     76.68% # Class of executed instruction
system.cpu0.op_class::FloatMult                     0      0.00%     76.68% # Class of executed instruction
system.cpu0.op_class::FloatDiv                      0      0.00%     76.68% # Class of executed instruction
system.cpu0.op_class::FloatSqrt                     0      0.00%     76.68% # Class of executed instruction
system.cpu0.op_class::SimdAdd                       0      0.00%     76.68% # Class of executed instruction
system.cpu0.op_class::SimdAddAcc                    0      0.00%     76.68% # Class of executed instruction
system.cpu0.op_class::SimdAlu                       0      0.00%     76.68% # Class of executed instruction
system.cpu0.op_class::SimdCmp                       0      0.00%     76.68% # Class of executed instruction
system.cpu0.op_class::SimdCvt                       0      0.00%     76.68% # Class of executed instruction
system.cpu0.op_class::SimdMisc                      0      0.00%     76.68% # Class of executed instruction
system.cpu0.op_class::SimdMult                      0      0.00%     76.68% # Class of executed instruction
system.cpu0.op_class::SimdMultAcc                   0      0.00%     76.68% # Class of executed instruction
system.cpu0.op_class::SimdShift                     0      0.00%     76.68% # Class of executed instruction
system.cpu0.op_class::SimdShiftAcc                  0      0.00%     76.68% # Class of executed instruction
system.cpu0.op_class::SimdSqrt                      0      0.00%     76.68% # Class of executed instruction
system.cpu0.op_class::SimdFloatAdd                  0      0.00%     76.68% # Class of executed instruction
system.cpu0.op_class::SimdFloatAlu                  0      0.00%     76.68% # Class of executed instruction
system.cpu0.op_class::SimdFloatCmp                  0      0.00%     76.68% # Class of executed instruction
system.cpu0.op_class::SimdFloatCvt                  0      0.00%     76.68% # Class of executed instruction
system.cpu0.op_class::SimdFloatDiv                  0      0.00%     76.68% # Class of executed instruction
system.cpu0.op_class::SimdFloatMisc                 0      0.00%     76.68% # Class of executed instruction
system.cpu0.op_class::SimdFloatMult                 0      0.00%     76.68% # Class of executed instruction
system.cpu0.op_class::SimdFloatMultAcc              0      0.00%     76.68% # Class of executed instruction
system.cpu0.op_class::SimdFloatSqrt                 0      0.00%     76.68% # Class of executed instruction
system.cpu0.op_class::MemRead                  122359     14.41%     91.09% # Class of executed instruction
system.cpu0.op_class::MemWrite                  75699      8.91%    100.00% # Class of executed instruction
system.cpu0.op_class::IprAccess                     0      0.00%    100.00% # Class of executed instruction
system.cpu0.op_class::InstPrefetch                  0      0.00%    100.00% # Class of executed instruction
system.cpu0.op_class::total                    849374                       # Class of executed instruction
system.cpu1.apic_clk_domain.clock                8000                       # Clock period in ticks
system.cpu1.numCycles                       922858125                       # number of cpu cycles simulated
system.cpu1.numWorkItemsStarted                     0                       # number of work items this cpu started
system.cpu1.numWorkItemsCompleted                   0                       # number of work items this cpu completed
system.cpu1.kern.inst.arm                           0                       # number of arm instructions executed
system.cpu1.kern.inst.quiesce                       0                       # number of quiesce instructions executed
system.cpu1.committedInsts                    1058906                       # Number of instructions committed
system.cpu1.committedOps                      2045684                       # Number of ops (including micro ops) committed
system.cpu1.num_int_alu_accesses              2014514                       # Number of integer alu accesses
system.cpu1.num_fp_alu_accesses                  2182                       # Number of float alu accesses
system.cpu1.num_func_calls                      43213                       # number of times a function call or return occured
system.cpu1.num_conditional_control_insts       166937                       # number of instructions that are conditional controls
system.cpu1.num_int_insts                     2014514                       # number of integer instructions
system.cpu1.num_fp_insts                         2182                       # number of float instructions
system.cpu1.num_int_register_reads            4094082                       # number of times the integer registers were read
system.cpu1.num_int_register_writes           1638713                       # number of times the integer registers were written
system.cpu1.num_fp_register_reads                3630                       # number of times the floating registers were read
system.cpu1.num_fp_register_writes               1789                       # number of times the floating registers were written
system.cpu1.num_cc_register_reads             1179545                       # number of times the CC registers were read
system.cpu1.num_cc_register_writes             683231                       # number of times the CC registers were written
system.cpu1.num_mem_refs                       466181                       # number of memory refs
system.cpu1.num_load_insts                     286601                       # Number of load instructions
system.cpu1.num_store_insts                    179580                       # Number of store instructions
system.cpu1.num_idle_cycles              918528270.209486                       # Number of idle cycles
system.cpu1.num_busy_cycles              4329854.790514                       # Number of busy cycles
system.cpu1.not_idle_fraction                0.004692                       # Percentage of non-idle cycles
system.cpu1.idle_fraction                    0.995308                       # Percentage of idle cycles
system.cpu1.Branches                           226561                       # Number of branches fetched
system.cpu1.op_class::No_OpClass                20185      0.99%      0.99% # Class of executed instruction
system.cpu1.op_class::IntAlu                  1549346     75.73%     76.72% # Class of executed instruction
system.cpu1.op_class::IntMult                    2559      0.13%     76.85% # Class of executed instruction
system.cpu1.op_class::IntDiv                     5922      0.29%     77.14% # Class of executed instruction
system.cpu1.op_class::FloatAdd                   1586      0.08%     77.21% # Class of executed instruction
system.cpu1.op_class::FloatCmp                      0      0.00%     77.21% # Class of executed instruction
system.cpu1.op_class::FloatCvt                      0      0.00%     77.21% # Class of executed instruction
system.cpu1.op_class::FloatMult                     0      0.00%     77.21% # Class of executed instruction
system.cpu1.op_class::FloatDiv                      0      0.00%     77.21% # Class of executed instruction
system.cpu1.op_class::FloatSqrt                     0      0.00%     77.21% # Class of executed instruction
system.cpu1.op_class::SimdAdd                       0      0.00%     77.21% # Class of executed instruction
system.cpu1.op_class::SimdAddAcc                    0      0.00%     77.21% # Class of executed instruction
system.cpu1.op_class::SimdAlu                       0      0.00%     77.21% # Class of executed instruction
system.cpu1.op_class::SimdCmp                       0      0.00%     77.21% # Class of executed instruction
system.cpu1.op_class::SimdCvt                       0      0.00%     77.21% # Class of executed instruction
system.cpu1.op_class::SimdMisc                      0      0.00%     77.21% # Class of executed instruction
system.cpu1.op_class::SimdMult                      0      0.00%     77.21% # Class of executed instruction
system.cpu1.op_class::SimdMultAcc                   0      0.00%     77.21% # Class of executed instruction
system.cpu1.op_class::SimdShift                     0      0.00%     77.21% # Class of executed instruction
system.cpu1.op_class::SimdShiftAcc                  0      0.00%     77.21% # Class of executed instruction
system.cpu1.op_class::SimdSqrt                      0      0.00%     77.21% # Class of executed instruction
system.cpu1.op_class::SimdFloatAdd                  0      0.00%     77.21% # Class of executed instruction
system.cpu1.op_class::SimdFloatAlu                  0      0.00%     77.21% # Class of executed instruction
system.cpu1.op_class::SimdFloatCmp                  0      0.00%     77.21% # Class of executed instruction
system.cpu1.op_class::SimdFloatCvt                  0      0.00%     77.21% # Class of executed instruction
system.cpu1.op_class::SimdFloatDiv                  0      0.00%     77.21% # Class of executed instruction
system.cpu1.op_class::SimdFloatMisc                 0      0.00%     77.21% # Class of executed instruction
system.cpu1.op_class::SimdFloatMult                 0      0.00%     77.21% # Class of executed instruction
system.cpu1.op_class::SimdFloatMultAcc              0      0.00%     77.21% # Class of executed instruction
system.cpu1.op_class::SimdFloatSqrt                 0      0.00%     77.21% # Class of executed instruction
system.cpu1.op_class::MemRead                  286601     14.01%     91.22% # Class of executed instruction
system.cpu1.op_class::MemWrite                 179580      8.78%    100.00% # Class of executed instruction
system.cpu1.op_class::IprAccess                     0      0.00%    100.00% # Class of executed instruction
system.cpu1.op_class::InstPrefetch                  0      0.00%    100.00% # Class of executed instruction
system.cpu1.op_class::total                   2045779                       # Class of executed instruction
system.cpu2.apic_clk_domain.clock                8000                       # Clock period in ticks
system.cpu2.numCycles                       923736637                       # number of cpu cycles simulated
system.cpu2.numWorkItemsStarted                     0                       # number of work items this cpu started
system.cpu2.numWorkItemsCompleted                   0                       # number of work items this cpu completed
system.cpu2.kern.inst.arm                           0                       # number of arm instructions executed
system.cpu2.kern.inst.quiesce                       0                       # number of quiesce instructions executed
system.cpu2.committedInsts                     432872                       # Number of instructions committed
system.cpu2.committedOps                       908590                       # Number of ops (including micro ops) committed
system.cpu2.num_int_alu_accesses               889709                       # Number of integer alu accesses
system.cpu2.num_fp_alu_accesses                   154                       # Number of float alu accesses
system.cpu2.num_func_calls                      23997                       # number of times a function call or return occured
system.cpu2.num_conditional_control_insts        67134                       # number of instructions that are conditional controls
system.cpu2.num_int_insts                      889709                       # number of integer instructions
system.cpu2.num_fp_insts                          154                       # number of float instructions
system.cpu2.num_int_register_reads            1802231                       # number of times the integer registers were read
system.cpu2.num_int_register_writes            732035                       # number of times the integer registers were written
system.cpu2.num_fp_register_reads                 285                       # number of times the floating registers were read
system.cpu2.num_fp_register_writes                124                       # number of times the floating registers were written
system.cpu2.num_cc_register_reads              518018                       # number of times the CC registers were read
system.cpu2.num_cc_register_writes             276534                       # number of times the CC registers were written
system.cpu2.num_mem_refs                       214363                       # number of memory refs
system.cpu2.num_load_insts                     131777                       # Number of load instructions
system.cpu2.num_store_insts                     82586                       # Number of store instructions
system.cpu2.num_idle_cycles              921848472.688267                       # Number of idle cycles
system.cpu2.num_busy_cycles              1888164.311733                       # Number of busy cycles
system.cpu2.not_idle_fraction                0.002044                       # Percentage of non-idle cycles
system.cpu2.idle_fraction                    0.997956                       # Percentage of idle cycles
system.cpu2.Branches                            99177                       # Number of branches fetched
system.cpu2.op_class::No_OpClass                14843      1.63%      1.63% # Class of executed instruction
system.cpu2.op_class::IntAlu                   672341     74.00%     75.63% # Class of executed instruction
system.cpu2.op_class::IntMult                    1959      0.22%     75.85% # Class of executed instruction
system.cpu2.op_class::IntDiv                     5025      0.55%     76.40% # Class of executed instruction
system.cpu2.op_class::FloatAdd                     87      0.01%     76.41% # Class of executed instruction
system.cpu2.op_class::FloatCmp                      0      0.00%     76.41% # Class of executed instruction
system.cpu2.op_class::FloatCvt                      0      0.00%     76.41% # Class of executed instruction
system.cpu2.op_class::FloatMult                     0      0.00%     76.41% # Class of executed instruction
system.cpu2.op_class::FloatDiv                      0      0.00%     76.41% # Class of executed instruction
system.cpu2.op_class::FloatSqrt                     0      0.00%     76.41% # Class of executed instruction
system.cpu2.op_class::SimdAdd                       0      0.00%     76.41% # Class of executed instruction
system.cpu2.op_class::SimdAddAcc                    0      0.00%     76.41% # Class of executed instruction
system.cpu2.op_class::SimdAlu                       0      0.00%     76.41% # Class of executed instruction
system.cpu2.op_class::SimdCmp                       0      0.00%     76.41% # Class of executed instruction
system.cpu2.op_class::SimdCvt                       0      0.00%     76.41% # Class of executed instruction
system.cpu2.op_class::SimdMisc                      0      0.00%     76.41% # Class of executed instruction
system.cpu2.op_class::SimdMult                      0      0.00%     76.41% # Class of executed instruction
system.cpu2.op_class::SimdMultAcc                   0      0.00%     76.41% # Class of executed instruction
system.cpu2.op_class::SimdShift                     0      0.00%     76.41% # Class of executed instruction
system.cpu2.op_class::SimdShiftAcc                  0      0.00%     76.41% # Class of executed instruction
system.cpu2.op_class::SimdSqrt                      0      0.00%     76.41% # Class of executed instruction
system.cpu2.op_class::SimdFloatAdd                  0      0.00%     76.41% # Class of executed instruction
system.cpu2.op_class::SimdFloatAlu                  0      0.00%     76.41% # Class of executed instruction
system.cpu2.op_class::SimdFloatCmp                  0      0.00%     76.41% # Class of executed instruction
system.cpu2.op_class::SimdFloatCvt                  0      0.00%     76.41% # Class of executed instruction
system.cpu2.op_class::SimdFloatDiv                  0      0.00%     76.41% # Class of executed instruction
system.cpu2.op_class::SimdFloatMisc                 0      0.00%     76.41% # Class of executed instruction
system.cpu2.op_class::SimdFloatMult                 0      0.00%     76.41% # Class of executed instruction
system.cpu2.op_class::SimdFloatMultAcc              0      0.00%     76.41% # Class of executed instruction
system.cpu2.op_class::SimdFloatSqrt                 0      0.00%     76.41% # Class of executed instruction
system.cpu2.op_class::MemRead                  131777     14.50%     90.91% # Class of executed instruction
system.cpu2.op_class::MemWrite                  82586      9.09%    100.00% # Class of executed instruction
system.cpu2.op_class::IprAccess                     0      0.00%    100.00% # Class of executed instruction
system.cpu2.op_class::InstPrefetch                  0      0.00%    100.00% # Class of executed instruction
system.cpu2.op_class::total                    908618                       # Class of executed instruction
system.cpu3.apic_clk_domain.clock                8000                       # Clock period in ticks
system.cpu3.numCycles                       926583906                       # number of cpu cycles simulated
system.cpu3.numWorkItemsStarted                     0                       # number of work items this cpu started
system.cpu3.numWorkItemsCompleted                   0                       # number of work items this cpu completed
system.cpu3.kern.inst.arm                           0                       # number of arm instructions executed
system.cpu3.kern.inst.quiesce                       0                       # number of quiesce instructions executed
system.cpu3.committedInsts                  265750463                       # Number of instructions committed
system.cpu3.committedOps                    479186498                       # Number of ops (including micro ops) committed
system.cpu3.num_int_alu_accesses            269551584                       # Number of integer alu accesses
system.cpu3.num_fp_alu_accesses             270615189                       # Number of float alu accesses
system.cpu3.num_func_calls                    9864337                       # number of times a function call or return occured
system.cpu3.num_conditional_control_insts     14997392                       # number of instructions that are conditional controls
system.cpu3.num_int_insts                   269551584                       # number of integer instructions
system.cpu3.num_fp_insts                    270615189                       # number of float instructions
system.cpu3.num_int_register_reads          512509399                       # number of times the integer registers were read
system.cpu3.num_int_register_writes         176050312                       # number of times the integer registers were written
system.cpu3.num_fp_register_reads           446719424                       # number of times the floating registers were read
system.cpu3.num_fp_register_writes          249466775                       # number of times the floating registers were written
system.cpu3.num_cc_register_reads           106899904                       # number of times the CC registers were read
system.cpu3.num_cc_register_writes           82964886                       # number of times the CC registers were written
system.cpu3.num_mem_refs                     84024685                       # number of memory refs
system.cpu3.num_load_insts                   62866670                       # Number of load instructions
system.cpu3.num_store_insts                  21158015                       # Number of store instructions
system.cpu3.num_idle_cycles              3862464.613418                       # Number of idle cycles
system.cpu3.num_busy_cycles              922721441.386582                       # Number of busy cycles
system.cpu3.not_idle_fraction                0.995832                       # Percentage of non-idle cycles
system.cpu3.idle_fraction                    0.004168                       # Percentage of idle cycles
system.cpu3.Branches                         27044963                       # Number of branches fetched
system.cpu3.op_class::No_OpClass                11160      0.00%      0.00% # Class of executed instruction
system.cpu3.op_class::IntAlu                244773633     51.08%     51.08% # Class of executed instruction
system.cpu3.op_class::IntMult                    2184      0.00%     51.08% # Class of executed instruction
system.cpu3.op_class::IntDiv                     1782      0.00%     51.08% # Class of executed instruction
system.cpu3.op_class::FloatAdd              150373151     31.38%     82.47% # Class of executed instruction
system.cpu3.op_class::FloatCmp                      0      0.00%     82.47% # Class of executed instruction
system.cpu3.op_class::FloatCvt                      0      0.00%     82.47% # Class of executed instruction
system.cpu3.op_class::FloatMult                     0      0.00%     82.47% # Class of executed instruction
system.cpu3.op_class::FloatDiv                      0      0.00%     82.47% # Class of executed instruction
system.cpu3.op_class::FloatSqrt                     0      0.00%     82.47% # Class of executed instruction
system.cpu3.op_class::SimdAdd                       0      0.00%     82.47% # Class of executed instruction
system.cpu3.op_class::SimdAddAcc                    0      0.00%     82.47% # Class of executed instruction
system.cpu3.op_class::SimdAlu                       0      0.00%     82.47% # Class of executed instruction
system.cpu3.op_class::SimdCmp                       0      0.00%     82.47% # Class of executed instruction
system.cpu3.op_class::SimdCvt                       0      0.00%     82.47% # Class of executed instruction
system.cpu3.op_class::SimdMisc                      0      0.00%     82.47% # Class of executed instruction
system.cpu3.op_class::SimdMult                      0      0.00%     82.47% # Class of executed instruction
system.cpu3.op_class::SimdMultAcc                   0      0.00%     82.47% # Class of executed instruction
system.cpu3.op_class::SimdShift                     0      0.00%     82.47% # Class of executed instruction
system.cpu3.op_class::SimdShiftAcc                  0      0.00%     82.47% # Class of executed instruction
system.cpu3.op_class::SimdSqrt                      0      0.00%     82.47% # Class of executed instruction
system.cpu3.op_class::SimdFloatAdd                  0      0.00%     82.47% # Class of executed instruction
system.cpu3.op_class::SimdFloatAlu                  0      0.00%     82.47% # Class of executed instruction
system.cpu3.op_class::SimdFloatCmp                  0      0.00%     82.47% # Class of executed instruction
system.cpu3.op_class::SimdFloatCvt                  0      0.00%     82.47% # Class of executed instruction
system.cpu3.op_class::SimdFloatDiv                  0      0.00%     82.47% # Class of executed instruction
system.cpu3.op_class::SimdFloatMisc                 0      0.00%     82.47% # Class of executed instruction
system.cpu3.op_class::SimdFloatMult                 0      0.00%     82.47% # Class of executed instruction
system.cpu3.op_class::SimdFloatMultAcc              0      0.00%     82.47% # Class of executed instruction
system.cpu3.op_class::SimdFloatSqrt                 0      0.00%     82.47% # Class of executed instruction
system.cpu3.op_class::MemRead                62866670     13.12%     95.58% # Class of executed instruction
system.cpu3.op_class::MemWrite               21158015      4.42%    100.00% # Class of executed instruction
system.cpu3.op_class::IprAccess                     0      0.00%    100.00% # Class of executed instruction
system.cpu3.op_class::InstPrefetch                  0      0.00%    100.00% # Class of executed instruction
system.cpu3.op_class::total                 479186595                       # Class of executed instruction
system.iobus.trans_dist::ReadReq                  110                       # Transaction distribution
system.iobus.trans_dist::ReadResp                 110                       # Transaction distribution
system.iobus.trans_dist::WriteReq                 585                       # Transaction distribution
system.iobus.trans_dist::WriteResp                585                       # Transaction distribution
system.iobus.trans_dist::MessageReq                21                       # Transaction distribution
system.iobus.trans_dist::MessageResp               21                       # Transaction distribution
system.iobus.pkt_count_system.pc.south_bridge.io_apic.int_master::system.ruby.l1_cntrl0.sequencer.pio-slave-port            4                       # Packet count per connected master and slave (bytes)
system.iobus.pkt_count_system.pc.south_bridge.io_apic.int_master::system.ruby.l1_cntrl1.sequencer.pio-slave-port            4                       # Packet count per connected master and slave (bytes)
system.iobus.pkt_count_system.pc.south_bridge.io_apic.int_master::system.ruby.l1_cntrl2.sequencer.pio-slave-port            4                       # Packet count per connected master and slave (bytes)
system.iobus.pkt_count_system.pc.south_bridge.io_apic.int_master::system.ruby.l1_cntrl3.sequencer.pio-slave-port            4                       # Packet count per connected master and slave (bytes)
system.iobus.pkt_count_system.pc.south_bridge.io_apic.int_master::total           16                       # Packet count per connected master and slave (bytes)
system.iobus.pkt_count_system.ruby.l1_cntrl0.sequencer.mem-master-port::system.pc.south_bridge.ide.pio           34                       # Packet count per connected master and slave (bytes)
system.iobus.pkt_count_system.ruby.l1_cntrl0.sequencer.mem-master-port::system.pc.south_bridge.io_apic.pio           14                       # Packet count per connected master and slave (bytes)
system.iobus.pkt_count_system.ruby.l1_cntrl0.sequencer.mem-master-port::system.pc.com_1.pio          162                       # Packet count per connected master and slave (bytes)
system.iobus.pkt_count_system.ruby.l1_cntrl0.sequencer.mem-master-port::system.ruby.l1_cntrl0.sequencer.pio-slave-port          252                       # Packet count per connected master and slave (bytes)
system.iobus.pkt_count_system.ruby.l1_cntrl0.sequencer.mem-master-port::system.ruby.l1_cntrl1.sequencer.pio-slave-port            2                       # Packet count per connected master and slave (bytes)
system.iobus.pkt_count_system.ruby.l1_cntrl0.sequencer.mem-master-port::total          464                       # Packet count per connected master and slave (bytes)
system.iobus.pkt_count_system.ruby.l1_cntrl1.sequencer.mem-master-port::system.pc.south_bridge.ide.pio           46                       # Packet count per connected master and slave (bytes)
system.iobus.pkt_count_system.ruby.l1_cntrl1.sequencer.mem-master-port::system.pc.south_bridge.io_apic.pio            8                       # Packet count per connected master and slave (bytes)
system.iobus.pkt_count_system.ruby.l1_cntrl1.sequencer.mem-master-port::system.ruby.l1_cntrl0.sequencer.pio-slave-port            4                       # Packet count per connected master and slave (bytes)
system.iobus.pkt_count_system.ruby.l1_cntrl1.sequencer.mem-master-port::system.ruby.l1_cntrl1.sequencer.pio-slave-port          262                       # Packet count per connected master and slave (bytes)
system.iobus.pkt_count_system.ruby.l1_cntrl1.sequencer.mem-master-port::system.ruby.l1_cntrl2.sequencer.pio-slave-port            2                       # Packet count per connected master and slave (bytes)
system.iobus.pkt_count_system.ruby.l1_cntrl1.sequencer.mem-master-port::system.ruby.l1_cntrl3.sequencer.pio-slave-port            4                       # Packet count per connected master and slave (bytes)
system.iobus.pkt_count_system.ruby.l1_cntrl1.sequencer.mem-master-port::total          326                       # Packet count per connected master and slave (bytes)
system.iobus.pkt_count_system.ruby.l1_cntrl2.sequencer.mem-master-port::system.pc.south_bridge.ide.pio           46                       # Packet count per connected master and slave (bytes)
system.iobus.pkt_count_system.ruby.l1_cntrl2.sequencer.mem-master-port::system.pc.south_bridge.io_apic.pio            6                       # Packet count per connected master and slave (bytes)
system.iobus.pkt_count_system.ruby.l1_cntrl2.sequencer.mem-master-port::system.pc.com_1.pio           22                       # Packet count per connected master and slave (bytes)
system.iobus.pkt_count_system.ruby.l1_cntrl2.sequencer.mem-master-port::system.ruby.l1_cntrl2.sequencer.pio-slave-port          246                       # Packet count per connected master and slave (bytes)
system.iobus.pkt_count_system.ruby.l1_cntrl2.sequencer.mem-master-port::system.ruby.l1_cntrl3.sequencer.pio-slave-port            2                       # Packet count per connected master and slave (bytes)
system.iobus.pkt_count_system.ruby.l1_cntrl2.sequencer.mem-master-port::total          322                       # Packet count per connected master and slave (bytes)
system.iobus.pkt_count_system.ruby.l1_cntrl3.sequencer.mem-master-port::system.pc.south_bridge.ide.pio           12                       # Packet count per connected master and slave (bytes)
system.iobus.pkt_count_system.ruby.l1_cntrl3.sequencer.mem-master-port::system.pc.south_bridge.io_apic.pio            8                       # Packet count per connected master and slave (bytes)
system.iobus.pkt_count_system.ruby.l1_cntrl3.sequencer.mem-master-port::system.ruby.l1_cntrl0.sequencer.pio-slave-port            6                       # Packet count per connected master and slave (bytes)
system.iobus.pkt_count_system.ruby.l1_cntrl3.sequencer.mem-master-port::system.ruby.l1_cntrl1.sequencer.pio-slave-port            2                       # Packet count per connected master and slave (bytes)
system.iobus.pkt_count_system.ruby.l1_cntrl3.sequencer.mem-master-port::system.ruby.l1_cntrl2.sequencer.pio-slave-port            4                       # Packet count per connected master and slave (bytes)
system.iobus.pkt_count_system.ruby.l1_cntrl3.sequencer.mem-master-port::system.ruby.l1_cntrl3.sequencer.pio-slave-port          272                       # Packet count per connected master and slave (bytes)
system.iobus.pkt_count_system.ruby.l1_cntrl3.sequencer.mem-master-port::total          304                       # Packet count per connected master and slave (bytes)
system.iobus.pkt_count::total                    1432                       # Packet count per connected master and slave (bytes)
system.iobus.pkt_size_system.pc.south_bridge.io_apic.int_master::system.ruby.l1_cntrl0.sequencer.pio-slave-port            8                       # Cumulative packet size per connected master and slave (bytes)
system.iobus.pkt_size_system.pc.south_bridge.io_apic.int_master::system.ruby.l1_cntrl1.sequencer.pio-slave-port            8                       # Cumulative packet size per connected master and slave (bytes)
system.iobus.pkt_size_system.pc.south_bridge.io_apic.int_master::system.ruby.l1_cntrl2.sequencer.pio-slave-port            8                       # Cumulative packet size per connected master and slave (bytes)
system.iobus.pkt_size_system.pc.south_bridge.io_apic.int_master::system.ruby.l1_cntrl3.sequencer.pio-slave-port            8                       # Cumulative packet size per connected master and slave (bytes)
system.iobus.pkt_size_system.pc.south_bridge.io_apic.int_master::total           32                       # Cumulative packet size per connected master and slave (bytes)
system.iobus.pkt_size_system.ruby.l1_cntrl0.sequencer.mem-master-port::system.pc.south_bridge.ide.pio           20                       # Cumulative packet size per connected master and slave (bytes)
system.iobus.pkt_size_system.ruby.l1_cntrl0.sequencer.mem-master-port::system.pc.south_bridge.io_apic.pio           28                       # Cumulative packet size per connected master and slave (bytes)
system.iobus.pkt_size_system.ruby.l1_cntrl0.sequencer.mem-master-port::system.pc.com_1.pio           81                       # Cumulative packet size per connected master and slave (bytes)
system.iobus.pkt_size_system.ruby.l1_cntrl0.sequencer.mem-master-port::system.ruby.l1_cntrl0.sequencer.pio-slave-port          504                       # Cumulative packet size per connected master and slave (bytes)
system.iobus.pkt_size_system.ruby.l1_cntrl0.sequencer.mem-master-port::system.ruby.l1_cntrl1.sequencer.pio-slave-port            4                       # Cumulative packet size per connected master and slave (bytes)
system.iobus.pkt_size_system.ruby.l1_cntrl0.sequencer.mem-master-port::total          637                       # Cumulative packet size per connected master and slave (bytes)
system.iobus.pkt_size_system.ruby.l1_cntrl1.sequencer.mem-master-port::system.pc.south_bridge.ide.pio           26                       # Cumulative packet size per connected master and slave (bytes)
system.iobus.pkt_size_system.ruby.l1_cntrl1.sequencer.mem-master-port::system.pc.south_bridge.io_apic.pio           16                       # Cumulative packet size per connected master and slave (bytes)
system.iobus.pkt_size_system.ruby.l1_cntrl1.sequencer.mem-master-port::system.ruby.l1_cntrl0.sequencer.pio-slave-port            8                       # Cumulative packet size per connected master and slave (bytes)
system.iobus.pkt_size_system.ruby.l1_cntrl1.sequencer.mem-master-port::system.ruby.l1_cntrl1.sequencer.pio-slave-port          524                       # Cumulative packet size per connected master and slave (bytes)
system.iobus.pkt_size_system.ruby.l1_cntrl1.sequencer.mem-master-port::system.ruby.l1_cntrl2.sequencer.pio-slave-port            4                       # Cumulative packet size per connected master and slave (bytes)
system.iobus.pkt_size_system.ruby.l1_cntrl1.sequencer.mem-master-port::system.ruby.l1_cntrl3.sequencer.pio-slave-port            8                       # Cumulative packet size per connected master and slave (bytes)
system.iobus.pkt_size_system.ruby.l1_cntrl1.sequencer.mem-master-port::total          586                       # Cumulative packet size per connected master and slave (bytes)
system.iobus.pkt_size_system.ruby.l1_cntrl2.sequencer.mem-master-port::system.pc.south_bridge.ide.pio           26                       # Cumulative packet size per connected master and slave (bytes)
system.iobus.pkt_size_system.ruby.l1_cntrl2.sequencer.mem-master-port::system.pc.south_bridge.io_apic.pio           12                       # Cumulative packet size per connected master and slave (bytes)
system.iobus.pkt_size_system.ruby.l1_cntrl2.sequencer.mem-master-port::system.pc.com_1.pio           11                       # Cumulative packet size per connected master and slave (bytes)
system.iobus.pkt_size_system.ruby.l1_cntrl2.sequencer.mem-master-port::system.ruby.l1_cntrl2.sequencer.pio-slave-port          492                       # Cumulative packet size per connected master and slave (bytes)
system.iobus.pkt_size_system.ruby.l1_cntrl2.sequencer.mem-master-port::system.ruby.l1_cntrl3.sequencer.pio-slave-port            4                       # Cumulative packet size per connected master and slave (bytes)
system.iobus.pkt_size_system.ruby.l1_cntrl2.sequencer.mem-master-port::total          545                       # Cumulative packet size per connected master and slave (bytes)
system.iobus.pkt_size_system.ruby.l1_cntrl3.sequencer.mem-master-port::system.pc.south_bridge.ide.pio            6                       # Cumulative packet size per connected master and slave (bytes)
system.iobus.pkt_size_system.ruby.l1_cntrl3.sequencer.mem-master-port::system.pc.south_bridge.io_apic.pio           16                       # Cumulative packet size per connected master and slave (bytes)
system.iobus.pkt_size_system.ruby.l1_cntrl3.sequencer.mem-master-port::system.ruby.l1_cntrl0.sequencer.pio-slave-port           12                       # Cumulative packet size per connected master and slave (bytes)
system.iobus.pkt_size_system.ruby.l1_cntrl3.sequencer.mem-master-port::system.ruby.l1_cntrl1.sequencer.pio-slave-port            4                       # Cumulative packet size per connected master and slave (bytes)
system.iobus.pkt_size_system.ruby.l1_cntrl3.sequencer.mem-master-port::system.ruby.l1_cntrl2.sequencer.pio-slave-port            8                       # Cumulative packet size per connected master and slave (bytes)
system.iobus.pkt_size_system.ruby.l1_cntrl3.sequencer.mem-master-port::system.ruby.l1_cntrl3.sequencer.pio-slave-port          544                       # Cumulative packet size per connected master and slave (bytes)
system.iobus.pkt_size_system.ruby.l1_cntrl3.sequencer.mem-master-port::total          590                       # Cumulative packet size per connected master and slave (bytes)
system.iobus.pkt_size::total                     2390                       # Cumulative packet size per connected master and slave (bytes)
system.iobus.reqLayer2.occupancy               124500                       # Layer occupancy (ticks)
system.iobus.reqLayer2.utilization                0.0                       # Layer utilization (%)
system.iobus.reqLayer8.occupancy                32496                       # Layer occupancy (ticks)
system.iobus.reqLayer8.utilization                0.0                       # Layer utilization (%)
system.iobus.reqLayer12.occupancy              120500                       # Layer occupancy (ticks)
system.iobus.reqLayer12.utilization               0.0                       # Layer utilization (%)
system.iobus.reqLayer17.occupancy              326999                       # Layer occupancy (ticks)
system.iobus.reqLayer17.utilization               0.0                       # Layer utilization (%)
system.iobus.reqLayer18.occupancy              326997                       # Layer occupancy (ticks)
system.iobus.reqLayer18.utilization               0.0                       # Layer utilization (%)
system.iobus.reqLayer19.occupancy              316498                       # Layer occupancy (ticks)
system.iobus.reqLayer19.utilization               0.0                       # Layer utilization (%)
system.iobus.reqLayer20.occupancy              290495                       # Layer occupancy (ticks)
system.iobus.reqLayer20.utilization               0.0                       # Layer utilization (%)
system.iobus.respLayer0.occupancy               11497                       # Layer occupancy (ticks)
system.iobus.respLayer0.utilization               0.0                       # Layer utilization (%)
system.iobus.respLayer2.occupancy              362000                       # Layer occupancy (ticks)
system.iobus.respLayer2.utilization               0.0                       # Layer utilization (%)
system.iobus.respLayer4.occupancy              242500                       # Layer occupancy (ticks)
system.iobus.respLayer4.utilization               0.0                       # Layer utilization (%)
system.iobus.respLayer6.occupancy              240500                       # Layer occupancy (ticks)
system.iobus.respLayer6.utilization               0.0                       # Layer utilization (%)
system.iobus.respLayer8.occupancy              231000                       # Layer occupancy (ticks)
system.iobus.respLayer8.utilization               0.0                       # Layer utilization (%)
system.pc.south_bridge.ide.disks.dma_read_full_pages            0                       # Number of full page size DMA reads (not PRD).
system.pc.south_bridge.ide.disks.dma_read_bytes            0                       # Number of bytes transfered via DMA reads (not PRD).
system.pc.south_bridge.ide.disks.dma_read_txs            0                       # Number of DMA read transactions (not PRD).
system.pc.south_bridge.ide.disks.dma_write_full_pages           45                       # Number of full page size DMA writes.
system.pc.south_bridge.ide.disks.dma_write_bytes       184320                       # Number of bytes transfered via DMA writes.
system.pc.south_bridge.ide.disks.dma_write_txs           45                       # Number of DMA write transactions.
system.ruby.clk_domain.clock                      500                       # Clock period in ticks
system.ruby.outstanding_req_hist_seqr::bucket_size            1                      
system.ruby.outstanding_req_hist_seqr::max_bucket            9                      
system.ruby.outstanding_req_hist_seqr::samples    462227244                      
system.ruby.outstanding_req_hist_seqr::mean     1.000000                      
system.ruby.outstanding_req_hist_seqr::gmean     1.000000                      
system.ruby.outstanding_req_hist_seqr::stdev     0.000661                      
system.ruby.outstanding_req_hist_seqr    |           0      0.00%      0.00% |   462227042    100.00%    100.00% |         202      0.00%    100.00% |           0      0.00%    100.00% |           0      0.00%    100.00% |           0      0.00%    100.00% |           0      0.00%    100.00% |           0      0.00%    100.00% |           0      0.00%    100.00% |           0      0.00%    100.00%
system.ruby.outstanding_req_hist_seqr::total    462227244                      
system.ruby.latency_hist_seqr::bucket_size          128                      
system.ruby.latency_hist_seqr::max_bucket         1279                      
system.ruby.latency_hist_seqr::samples      462227244                      
system.ruby.latency_hist_seqr::mean          1.009059                      
system.ruby.latency_hist_seqr::gmean         1.001645                      
system.ruby.latency_hist_seqr::stdev         0.585088                      
system.ruby.latency_hist_seqr            |   462226565    100.00%    100.00% |         591      0.00%    100.00% |           9      0.00%    100.00% |          21      0.00%    100.00% |          37      0.00%    100.00% |          21      0.00%    100.00% |           0      0.00%    100.00% |           0      0.00%    100.00% |           0      0.00%    100.00% |           0      0.00%    100.00%
system.ruby.latency_hist_seqr::total        462227244                      
system.ruby.hit_latency_hist_seqr::bucket_size            2                      
system.ruby.hit_latency_hist_seqr::max_bucket           19                      
system.ruby.hit_latency_hist_seqr::samples    462200043                      
system.ruby.hit_latency_hist_seqr::mean      1.005916                      
system.ruby.hit_latency_hist_seqr::gmean     1.001420                      
system.ruby.hit_latency_hist_seqr::stdev     0.243148                      
system.ruby.hit_latency_hist_seqr        |   461926624     99.94%     99.94% |           0      0.00%     99.94% |           0      0.00%     99.94% |           0      0.00%     99.94% |           0      0.00%     99.94% |      273419      0.06%    100.00% |           0      0.00%    100.00% |           0      0.00%    100.00% |           0      0.00%    100.00% |           0      0.00%    100.00%
system.ruby.hit_latency_hist_seqr::total    462200043                      
system.ruby.miss_latency_hist_seqr::bucket_size          128                      
[...]
system.ruby.L1Cache_Controller.O.Merged_GETS::total            1                      
system.ruby.L1Cache_Controller.M.Load    |       75982      0.53%      0.53% |      208718      1.47%      2.00% |       51178      0.36%      2.36% |    13890718     97.64%    100.00%
system.ruby.L1Cache_Controller.M.Load::total     14226596                      
system.ruby.L1Cache_Controller.M.Ifetch  |      177742      0.43%      0.43% |    16026832     39.19%     39.62% |       33184      0.08%     39.70% |    24661370     60.30%    100.00%
system.ruby.L1Cache_Controller.M.Ifetch::total     40899128                      
system.ruby.L1Cache_Controller.M.Store   |        4942     42.56%     42.56% |        3103     26.72%     69.28% |        2117     18.23%     87.51% |        1450     12.49%    100.00%
system.ruby.L1Cache_Controller.M.Store::total        11612                      
system.ruby.L1Cache_Controller.M.L2_Replacement |         206     28.81%     28.81% |         438     61.26%     90.07% |           0      0.00%     90.07% |          71      9.93%    100.00%
system.ruby.L1Cache_Controller.M.L2_Replacement::total          715                      
system.ruby.L1Cache_Controller.M.L1_to_L2 |        5812      2.42%      2.42% |       44749     18.65%     21.07% |        4511      1.88%     22.95% |      184850     77.05%    100.00%
system.ruby.L1Cache_Controller.M.L1_to_L2::total       239922                      
system.ruby.L1Cache_Controller.M.Trigger_L2_to_L1D |        1728      0.93%      0.93% |        3211      1.72%      2.65% |        1582      0.85%      3.50% |      179944     96.50%    100.00%
system.ruby.L1Cache_Controller.M.Trigger_L2_to_L1D::total       186465                      
system.ruby.L1Cache_Controller.M.Trigger_L2_to_L1I |        1347      3.50%      3.50% |       36278     94.39%     97.90% |         211      0.55%     98.44% |         598      1.56%    100.00%
system.ruby.L1Cache_Controller.M.Trigger_L2_to_L1I::total        38434                      
system.ruby.L1Cache_Controller.M.Other_GETX |         928     42.76%     42.76% |         666     30.69%     73.46% |         292     13.46%     86.91% |         284     13.09%    100.00%
system.ruby.L1Cache_Controller.M.Other_GETX::total         2170                      
system.ruby.L1Cache_Controller.M.Other_GETS |        1624     12.91%     12.91% |        3970     31.55%     44.46% |        3157     25.09%     69.55% |        3831     30.45%    100.00%
system.ruby.L1Cache_Controller.M.Other_GETS::total        12582                      
system.ruby.L1Cache_Controller.M.Merged_GETS |           4     10.26%     10.26% |           8     20.51%     30.77% |           5     12.82%     43.59% |          22     56.41%    100.00%
system.ruby.L1Cache_Controller.M.Merged_GETS::total           39                      
system.ruby.L1Cache_Controller.MM.Load   |      487272      1.71%      1.71% |     3401214     11.92%     13.63% |      246894      0.87%     14.50% |    24389527     85.50%    100.00%
system.ruby.L1Cache_Controller.MM.Load::total     28524907                      
system.ruby.L1Cache_Controller.MM.Store  |      562320      2.26%      2.26% |     2785407     11.20%     13.47% |      279996      1.13%     14.59% |    21233394     85.41%    100.00%
system.ruby.L1Cache_Controller.MM.Store::total     24861117                      
system.ruby.L1Cache_Controller.MM.L2_Replacement |        1300     48.56%     48.56% |        1242     46.40%     94.96% |          26      0.97%     95.93% |         109      4.07%    100.00%
system.ruby.L1Cache_Controller.MM.L2_Replacement::total         2677                      
system.ruby.L1Cache_Controller.MM.L1_to_L2 |       21624     19.93%     19.93% |       29007     26.73%     46.65% |       11619     10.71%     57.36% |       46275     42.64%    100.00%
system.ruby.L1Cache_Controller.MM.L1_to_L2::total       108525                      
system.ruby.L1Cache_Controller.MM.Trigger_L2_to_L1D |        8721     12.12%     12.12% |       16049     22.31%     34.43% |        5443      7.56%     41.99% |       41738     58.01%    100.00%
system.ruby.L1Cache_Controller.MM.Trigger_L2_to_L1D::total        71951                      
system.ruby.L1Cache_Controller.MM.Other_GETX |         801      8.61%      8.61% |        4346     46.71%     55.32% |         657      7.06%     62.38% |        3500     37.62%    100.00%
system.ruby.L1Cache_Controller.MM.Other_GETX::total         9304                      
system.ruby.L1Cache_Controller.MM.Other_GETS |        3205     23.15%     23.15% |        6146     44.39%     67.55% |        1835     13.25%     80.80% |        2658     19.20%    100.00%
system.ruby.L1Cache_Controller.MM.Other_GETS::total        13844                      
system.ruby.L1Cache_Controller.MM.Merged_GETS |           7     10.77%     10.77% |          19     29.23%     40.00% |           9     13.85%     53.85% |          30     46.15%    100.00%
system.ruby.L1Cache_Controller.MM.Merged_GETS::total           65                      
system.ruby.L1Cache_Controller.SR.Load   |        6156     31.58%     31.58% |        5326     27.32%     58.89% |        2104     10.79%     69.69% |        5910     30.31%    100.00%
system.ruby.L1Cache_Controller.SR.Load::total        19496                      
system.ruby.L1Cache_Controller.SR.Ifetch |       25973     30.32%     30.32% |       40754     47.57%     77.89% |       13184     15.39%     93.28% |        5755      6.72%    100.00%
system.ruby.L1Cache_Controller.SR.Ifetch::total        85666                      
system.ruby.L1Cache_Controller.SR.Store  |         122     32.02%     32.02% |         177     46.46%     78.48% |          27      7.09%     85.56% |          55     14.44%    100.00%
system.ruby.L1Cache_Controller.SR.Store::total          381                      
system.ruby.L1Cache_Controller.OR.Load   |         341      4.29%      4.29% |        1590     20.00%     24.29% |         977     12.29%     36.58% |        5042     63.42%    100.00%
system.ruby.L1Cache_Controller.OR.Load::total         7950                      
system.ruby.L1Cache_Controller.OR.Ifetch |        1204      5.15%      5.15% |        8491     36.31%     41.46% |        1096      4.69%     46.15% |       12593     53.85%    100.00%
system.ruby.L1Cache_Controller.OR.Ifetch::total        23384                      
system.ruby.L1Cache_Controller.OR.Store  |           4      4.26%      4.26% |          76     80.85%     85.11% |           7      7.45%     92.55% |           7      7.45%    100.00%
system.ruby.L1Cache_Controller.OR.Store::total           94                      
system.ruby.L1Cache_Controller.MR.Load   |        1141      0.62%      0.62% |        2126      1.15%      1.77% |        1204      0.65%      2.43% |      179764     97.57%    100.00%
system.ruby.L1Cache_Controller.MR.Load::total       184235                      
system.ruby.L1Cache_Controller.MR.Ifetch |        1347      3.50%      3.50% |       36278     94.39%     97.90% |         211      0.55%     98.44% |         598      1.56%    100.00%
system.ruby.L1Cache_Controller.MR.Ifetch::total        38434                      
system.ruby.L1Cache_Controller.MR.Store  |         587     26.32%     26.32% |        1085     48.65%     74.98% |         378     16.95%     91.93% |         180      8.07%    100.00%
system.ruby.L1Cache_Controller.MR.Store::total         2230                      
system.ruby.L1Cache_Controller.MMR.Load  |        5337     25.97%     25.97% |        8439     41.06%     67.03% |        2004      9.75%     76.78% |        4771     23.22%    100.00%
system.ruby.L1Cache_Controller.MMR.Load::total        20551                      
system.ruby.L1Cache_Controller.MMR.Store |        3384      6.58%      6.58% |        7610     14.81%     21.39% |        3439      6.69%     28.08% |       36967     71.92%    100.00%
system.ruby.L1Cache_Controller.MMR.Store::total        51400                      
system.ruby.L1Cache_Controller.IM.Ack    |       12014     21.98%     21.98% |       26854     49.12%     71.09% |        9259     16.94%     88.03% |        6544     11.97%    100.00%
system.ruby.L1Cache_Controller.IM.Ack::total        54671                      
system.ruby.L1Cache_Controller.IM.Data   |         890     64.49%     64.49% |         183     13.26%     77.75% |         188     13.62%     91.38% |         119      8.62%    100.00%
system.ruby.L1Cache_Controller.IM.Data::total         1380                      
system.ruby.L1Cache_Controller.IM.Exclusive_Data |        6796     26.93%     26.93% |       10122     40.11%     67.04% |        4970     19.70%     86.74% |        3346     13.26%    100.00%
system.ruby.L1Cache_Controller.IM.Exclusive_Data::total        25234                      
system.ruby.L1Cache_Controller.SM.Other_GETX |           0      0.00%      0.00% |           0      0.00%      0.00% |           1    100.00%    100.00% |           0      0.00%    100.00%
system.ruby.L1Cache_Controller.SM.Other_GETX::total            1                      
system.ruby.L1Cache_Controller.SM.Ack    |        2070     49.04%     49.04% |        1074     25.44%     74.48% |         506     11.99%     86.47% |         571     13.53%    100.00%
system.ruby.L1Cache_Controller.SM.Ack::total         4221                      
system.ruby.L1Cache_Controller.SM.Data   |        1874     46.98%     46.98% |        1104     27.68%     74.66% |         489     12.26%     86.91% |         522     13.09%    100.00%
system.ruby.L1Cache_Controller.SM.Data::total         3989                      
system.ruby.L1Cache_Controller.OM.Ack    |         123     10.93%     10.93% |         774     68.80%     79.73% |          99      8.80%     88.53% |         129     11.47%    100.00%
system.ruby.L1Cache_Controller.OM.Ack::total         1125                      
system.ruby.L1Cache_Controller.OM.All_acks_no_sharers |          41     10.93%     10.93% |         258     68.80%     79.73% |          33      8.80%     88.53% |          43     11.47%    100.00%
system.ruby.L1Cache_Controller.OM.All_acks_no_sharers::total          375                      
system.ruby.L1Cache_Controller.ISM.Ack   |        2627     50.17%     50.17% |        1327     25.34%     75.52% |         692     13.22%     88.73% |         590     11.27%    100.00%
system.ruby.L1Cache_Controller.ISM.Ack::total         5236                      
system.ruby.L1Cache_Controller.ISM.All_acks_no_sharers |        2764     51.48%     51.48% |        1287     23.97%     75.45% |         677     12.61%     88.06% |         641     11.94%    100.00%
system.ruby.L1Cache_Controller.ISM.All_acks_no_sharers::total         5369                      
system.ruby.L1Cache_Controller.M_W.Load  |          60     22.99%     22.99% |         116     44.44%     67.43% |          50     19.16%     86.59% |          35     13.41%    100.00%
system.ruby.L1Cache_Controller.M_W.Load::total          261                      
system.ruby.L1Cache_Controller.M_W.Store |           8      8.70%      8.70% |          64     69.57%     78.26% |          17     18.48%     96.74% |           3      3.26%    100.00%
system.ruby.L1Cache_Controller.M_W.Store::total           92                      
system.ruby.L1Cache_Controller.M_W.Ack   |        3116     22.65%     22.65% |        3258     23.68%     46.34% |        4099     29.80%     76.13% |        3283     23.87%    100.00%
system.ruby.L1Cache_Controller.M_W.Ack::total        13756                      
system.ruby.L1Cache_Controller.M_W.All_acks_no_sharers |        9509     28.43%     28.43% |       10762     32.17%     60.60% |        6389     19.10%     79.70% |        6790     20.30%    100.00%
system.ruby.L1Cache_Controller.M_W.All_acks_no_sharers::total        33450                      
system.ruby.L1Cache_Controller.MM_W.Load |           0      0.00%      0.00% |           1    100.00%    100.00% |           0      0.00%    100.00% |           0      0.00%    100.00%
system.ruby.L1Cache_Controller.MM_W.Load::total            1                      
system.ruby.L1Cache_Controller.MM_W.Store |         931     29.71%     29.71% |         553     17.65%     47.35% |        1012     32.29%     79.64% |         638     20.36%    100.00%
system.ruby.L1Cache_Controller.MM_W.Store::total         3134                      
system.ruby.L1Cache_Controller.MM_W.Ack  |        4562     41.28%     41.28% |        1684     15.24%     56.51% |        3003     27.17%     83.69% |        1803     16.31%    100.00%
system.ruby.L1Cache_Controller.MM_W.Ack::total        11052                      
system.ruby.L1Cache_Controller.MM_W.All_acks_no_sharers |        6804     26.87%     26.87% |       10186     40.22%     67.09% |        4987     19.69%     86.78% |        3349     13.22%    100.00%
system.ruby.L1Cache_Controller.MM_W.All_acks_no_sharers::total        25326                      
system.ruby.L1Cache_Controller.IS.Other_GETX |           1    100.00%    100.00% |           0      0.00%    100.00% |           0      0.00%    100.00% |           0      0.00%    100.00%
system.ruby.L1Cache_Controller.IS.Other_GETX::total            1                      
system.ruby.L1Cache_Controller.IS.Other_GETS |           0      0.00%      0.00% |           0      0.00%      0.00% |           2    100.00%    100.00% |           0      0.00%    100.00%
system.ruby.L1Cache_Controller.IS.Other_GETS::total            2                      
system.ruby.L1Cache_Controller.IS.Ack    |       29822     31.34%     31.34% |       31838     33.46%     64.80% |       15572     16.37%     81.17% |       17919     18.83%    100.00%
system.ruby.L1Cache_Controller.IS.Ack::total        95151                      
system.ruby.L1Cache_Controller.IS.Shared_Ack |        5044     43.15%     43.15% |        1095      9.37%     52.52% |        4943     42.29%     94.81% |         607      5.19%    100.00%
system.ruby.L1Cache_Controller.IS.Shared_Ack::total        11689                      
system.ruby.L1Cache_Controller.IS.Data   |         170     37.20%     37.20% |         102     22.32%     59.52% |         140     30.63%     90.15% |          45      9.85%    100.00%
system.ruby.L1Cache_Controller.IS.Data::total          457                      
system.ruby.L1Cache_Controller.IS.Shared_Data |       10182     36.09%     36.09% |        6485     22.99%     59.08% |        7970     28.25%     87.34% |        3572     12.66%    100.00%
system.ruby.L1Cache_Controller.IS.Shared_Data::total        28209                      
system.ruby.L1Cache_Controller.IS.Exclusive_Data |        9517     28.37%     28.37% |       10826     32.28%     60.65% |        6406     19.10%     79.75% |        6793     20.25%    100.00%
system.ruby.L1Cache_Controller.IS.Exclusive_Data::total        33542                      
system.ruby.L1Cache_Controller.SS.Load   |         158     48.77%     48.77% |          36     11.11%     59.88% |          93     28.70%     88.58% |          37     11.42%    100.00%
system.ruby.L1Cache_Controller.SS.Load::total          324                      
system.ruby.L1Cache_Controller.SS.Ifetch |        2785     38.85%     38.85% |        1376     19.20%     58.05% |        2078     28.99%     87.04% |         929     12.96%    100.00%
system.ruby.L1Cache_Controller.SS.Ifetch::total         7168                      
system.ruby.L1Cache_Controller.SS.Store  |           2     11.76%     11.76% |           5     29.41%     41.18% |           1      5.88%     47.06% |           9     52.94%    100.00%
system.ruby.L1Cache_Controller.SS.Store::total           17                      
system.ruby.L1Cache_Controller.SS.Ack    |        4532     31.43%     31.43% |        4886     33.89%     65.32% |        3256     22.58%     87.90% |        1745     12.10%    100.00%
system.ruby.L1Cache_Controller.SS.Ack::total        14419                      
system.ruby.L1Cache_Controller.SS.Shared_Ack |        4040     43.62%     43.62% |         889      9.60%     53.22% |        3385     36.55%     89.77% |         947     10.23%    100.00%
system.ruby.L1Cache_Controller.SS.Shared_Ack::total         9261                      
system.ruby.L1Cache_Controller.SS.All_acks |       10337     36.09%     36.09% |        6586     22.99%     59.08% |        8105     28.30%     87.38% |        3616     12.62%    100.00%
system.ruby.L1Cache_Controller.SS.All_acks::total        28644                      
system.ruby.L1Cache_Controller.SS.All_acks_no_sharers |          15     68.18%     68.18% |           1      4.55%     72.73% |           5     22.73%     95.45% |           1      4.55%    100.00%
system.ruby.L1Cache_Controller.SS.All_acks_no_sharers::total           22                      
system.ruby.L1Cache_Controller.OI.Load   |           1     33.33%     33.33% |           0      0.00%     33.33% |           0      0.00%     33.33% |           2     66.67%    100.00%
system.ruby.L1Cache_Controller.OI.Load::total            3                      
system.ruby.L1Cache_Controller.OI.Ifetch |           0      0.00%      0.00% |           5     71.43%     71.43% |           0      0.00%     71.43% |           2     28.57%    100.00%
system.ruby.L1Cache_Controller.OI.Ifetch::total            7                      
system.ruby.L1Cache_Controller.OI.Writeback_Ack |          98     16.58%     16.58% |         268     45.35%     61.93% |          20      3.38%     65.31% |         205     34.69%    100.00%
system.ruby.L1Cache_Controller.OI.Writeback_Ack::total          591                      
system.ruby.L1Cache_Controller.MI.Load   |          11     37.93%     37.93% |          18     62.07%    100.00% |           0      0.00%    100.00% |           0      0.00%    100.00%
system.ruby.L1Cache_Controller.MI.Load::total           29                      
system.ruby.L1Cache_Controller.MI.Ifetch |           0      0.00%      0.00% |           1    100.00%    100.00% |           0      0.00%    100.00% |           0      0.00%    100.00%
system.ruby.L1Cache_Controller.MI.Ifetch::total            1                      
system.ruby.L1Cache_Controller.MI.Store  |           7     46.67%     46.67% |           6     40.00%     86.67% |           0      0.00%     86.67% |           2     13.33%    100.00%
system.ruby.L1Cache_Controller.MI.Store::total           15                      
system.ruby.L1Cache_Controller.MI.Writeback_Ack |        1506     44.40%     44.40% |        1680     49.53%     93.93% |          26      0.77%     94.69% |         180      5.31%    100.00%
system.ruby.L1Cache_Controller.MI.Writeback_Ack::total         3392                      
system.ruby.L1Cache_Controller.ST.Complete_L2_to_L1 |       32251     30.56%     30.56% |       46257     43.83%     74.38% |       15315     14.51%     88.90% |       11720     11.10%    100.00%
system.ruby.L1Cache_Controller.ST.Complete_L2_to_L1::total       105543                      
system.ruby.L1Cache_Controller.OT.Complete_L2_to_L1 |        1549      4.93%      4.93% |       10157     32.32%     37.25% |        2080      6.62%     43.87% |       17642     56.13%    100.00%
system.ruby.L1Cache_Controller.OT.Complete_L2_to_L1::total        31428                      
system.ruby.L1Cache_Controller.MT.Complete_L2_to_L1 |        3075      1.37%      1.37% |       39489     17.56%     18.93% |        1793      0.80%     19.72% |      180542     80.28%    100.00%
system.ruby.L1Cache_Controller.MT.Complete_L2_to_L1::total       224899                      
system.ruby.L1Cache_Controller.MMT.Complete_L2_to_L1 |        8721     12.12%     12.12% |       16049     22.31%     34.43% |        5443      7.56%     41.99% |       41738     58.01%    100.00%
system.ruby.L1Cache_Controller.MMT.Complete_L2_to_L1::total        71951                      

---------- End Simulation Statistics   ----------
