
---------- Begin Simulation Statistics ----------
sim_seconds                                  0.839803                       # Number of seconds simulated
sim_ticks                                839802978500                       # Number of ticks simulated
final_tick                               54478911824001                       # Number of ticks from beginning of simulation (restored from checkpoints and never reset)
sim_freq                                 1000000000000                       # Frequency of simulated ticks
host_inst_rate                                 100894                       # Simulator instruction rate (inst/s)
host_op_rate                                   167121                       # Simulator op (including micro ops) rate (op/s)
host_tick_rate                              302565883                       # Simulator tick rate (ticks/s)
host_mem_usage                                2029580                       # Number of bytes of host memory used
host_seconds                                  2775.60                       # Real time elapsed on the host
sim_insts                                   280041461                       # Number of instructions simulated
sim_ops                                     463863018                       # Number of ops (including micro ops) simulated
system.voltage_domain.voltage                       1                       # Voltage in Volts
system.clk_domain.clock                          1000                       # Clock period in ticks
system.mem_ctrls.bytes_read::ruby.dir_cntrl0    137190208                       # Number of bytes read from this memory
system.mem_ctrls.bytes_read::total          137190208                       # Number of bytes read from this memory
system.mem_ctrls.bytes_written::ruby.dir_cntrl0     63475104                       # Number of bytes written to this memory
system.mem_ctrls.bytes_written::total        63475104                       # Number of bytes written to this memory
system.mem_ctrls.num_reads::ruby.dir_cntrl0      4287194                       # Number of read requests responded to by this memory
system.mem_ctrls.num_reads::total             4287194                       # Number of read requests responded to by this memory
system.mem_ctrls.num_writes::ruby.dir_cntrl0      1983597                       # Number of write requests responded to by this memory
system.mem_ctrls.num_writes::total            1983597                       # Number of write requests responded to by this memory
system.mem_ctrls.bw_read::ruby.dir_cntrl0    163359992                       # Total read bandwidth from this memory (bytes/s)
system.mem_ctrls.bw_read::total             163359992                       # Total read bandwidth from this memory (bytes/s)
system.mem_ctrls.bw_write::ruby.dir_cntrl0     75583328                       # Write bandwidth from this memory (bytes/s)
system.mem_ctrls.bw_write::total             75583328                       # Write bandwidth from this memory (bytes/s)
system.mem_ctrls.bw_total::ruby.dir_cntrl0    238943320                       # Total bandwidth to/from this memory (bytes/s)
system.mem_ctrls.bw_total::total            238943320                       # Total bandwidth to/from this memory (bytes/s)
system.mem_ctrls.readReqs                     4287194                       # Number of read requests accepted
system.mem_ctrls.writeReqs                    1983597                       # Number of write requests accepted
system.mem_ctrls.readBursts                   4287194                       # Number of DRAM read bursts, including those serviced by the write queue
system.mem_ctrls.writeBursts                  1983597                       # Number of DRAM write bursts, including those merged in the write queue
system.mem_ctrls.bytesReadDRAM              274325952                       # Total number of bytes read from DRAM
system.mem_ctrls.bytesReadWrQ                   54464                       # Total number of bytes read from write queue
system.mem_ctrls.bytesWritten               126729984                       # Total number of bytes written to DRAM
system.mem_ctrls.bytesReadSys               137190208                       # Total read bytes from the system interface side
system.mem_ctrls.bytesWrittenSys             63475104                       # Total written bytes from the system interface side
system.mem_ctrls.servicedByWrQ                    851                       # Number of DRAM read bursts serviced by the write queue
system.mem_ctrls.mergedWrBursts                  3440                       # Number of DRAM write bursts merged with an existing one
system.mem_ctrls.neitherReadNorWriteReqs            0                       # Number of requests that are neither read nor write
system.mem_ctrls.perBankRdBursts::0            263278                       # Per bank write bursts
system.mem_ctrls.perBankRdBursts::1            293073                       # Per bank write bursts
system.mem_ctrls.perBankRdBursts::2            275078                       # Per bank write bursts
system.mem_ctrls.perBankRdBursts::3            270754                       # Per bank write bursts
system.mem_ctrls.perBankRdBursts::4            281105                       # Per bank write bursts
system.mem_ctrls.perBankRdBursts::5            274312                       # Per bank write bursts
system.mem_ctrls.perBankRdBursts::6            261688                       # Per bank write bursts
system.mem_ctrls.perBankRdBursts::7            262481                       # Per bank write bursts
system.mem_ctrls.perBankRdBursts::8            283499                       # Per bank write bursts
system.mem_ctrls.perBankRdBursts::9            257907                       # Per bank write bursts
system.mem_ctrls.perBankRdBursts::10           254163                       # Per bank write bursts
system.mem_ctrls.perBankRdBursts::11           256738                       # Per bank write bursts
system.mem_ctrls.perBankRdBursts::12           257915                       # Per bank write bursts
system.mem_ctrls.perBankRdBursts::13           268858                       # Per bank write bursts
system.mem_ctrls.perBankRdBursts::14           261825                       # Per bank write bursts
system.mem_ctrls.perBankRdBursts::15           263669                       # Per bank write bursts
system.mem_ctrls.perBankWrBursts::0            122573                       # Per bank write bursts
system.mem_ctrls.perBankWrBursts::1            130747                       # Per bank write bursts
system.mem_ctrls.perBankWrBursts::2            124325                       # Per bank write bursts
system.mem_ctrls.perBankWrBursts::3            123191                       # Per bank write bursts
system.mem_ctrls.perBankWrBursts::4            124719                       # Per bank write bursts
system.mem_ctrls.perBankWrBursts::5            123927                       # Per bank write bursts
system.mem_ctrls.perBankWrBursts::6            124474                       # Per bank write bursts
system.mem_ctrls.perBankWrBursts::7            122042                       # Per bank write bursts
system.mem_ctrls.perBankWrBursts::8            128829                       # Per bank write bursts
system.mem_ctrls.perBankWrBursts::9            122998                       # Per bank write bursts
system.mem_ctrls.perBankWrBursts::10           121571                       # Per bank write bursts
system.mem_ctrls.perBankWrBursts::11           122540                       # Per bank write bursts
system.mem_ctrls.perBankWrBursts::12           123450                       # Per bank write bursts
system.mem_ctrls.perBankWrBursts::13           123518                       # Per bank write bursts
system.mem_ctrls.perBankWrBursts::14           121734                       # Per bank write bursts
system.mem_ctrls.perBankWrBursts::15           119518                       # Per bank write bursts
system.mem_ctrls.numRdRetry                         0                       # Number of times read queue was full causing retry
system.mem_ctrls.numWrRetry                         0                       # Number of times write queue was full causing retry
system.mem_ctrls.totGap                  839803006500                       # Total gap between requests
system.mem_ctrls.readPktSize::0                     0                       # Read request sizes (log2)
system.mem_ctrls.readPktSize::1                     0                       # Read request sizes (log2)
system.mem_ctrls.readPktSize::2                     0                       # Read request sizes (log2)
system.mem_ctrls.readPktSize::3                     0                       # Read request sizes (log2)
system.mem_ctrls.readPktSize::4                     0                       # Read request sizes (log2)
system.mem_ctrls.readPktSize::5               4287194                       # Read request sizes (log2)
system.mem_ctrls.readPktSize::6                     0                       # Read request sizes (log2)
system.mem_ctrls.writePktSize::0                    0                       # Write request sizes (log2)
system.mem_ctrls.writePktSize::1                    0                       # Write request sizes (log2)
system.mem_ctrls.writePktSize::2                    0                       # Write request sizes (log2)
system.mem_ctrls.writePktSize::3                    0                       # Write request sizes (log2)
system.mem_ctrls.writePktSize::4                    0                       # Write request sizes (log2)
system.mem_ctrls.writePktSize::5              1983597                       # Write request sizes (log2)
system.mem_ctrls.writePktSize::6                    0                       # Write request sizes (log2)
system.mem_ctrls.rdQLenPdf::0                 4227974                       # What read queue length does an incoming req see
system.mem_ctrls.rdQLenPdf::1                   57973                       # What read queue length does an incoming req see
system.mem_ctrls.rdQLenPdf::2                     380                       # What read queue length does an incoming req see
system.mem_ctrls.rdQLenPdf::3                      16                       # What read queue length does an incoming req see
system.mem_ctrls.rdQLenPdf::4                       0                       # What read queue length does an incoming req see
system.mem_ctrls.rdQLenPdf::5                       0                       # What read queue length does an incoming req see
system.mem_ctrls.rdQLenPdf::6                       0                       # What read queue length does an incoming req see
system.mem_ctrls.rdQLenPdf::7                       0                       # What read queue length does an incoming req see
system.mem_ctrls.rdQLenPdf::8                       0                       # What read queue length does an incoming req see
system.mem_ctrls.rdQLenPdf::9                       0                       # What read queue length does an incoming req see
system.mem_ctrls.rdQLenPdf::10                      0                       # What read queue length does an incoming req see
system.mem_ctrls.rdQLenPdf::11                      0                       # What read queue length does an incoming req see
system.mem_ctrls.rdQLenPdf::12                      0                       # What read queue length does an incoming req see
system.mem_ctrls.rdQLenPdf::13                      0                       # What read queue length does an incoming req see
system.mem_ctrls.rdQLenPdf::14                      0                       # What read queue length does an incoming req see
system.mem_ctrls.rdQLenPdf::15                      0                       # What read queue length does an incoming req see
system.mem_ctrls.rdQLenPdf::16                      0                       # What read queue length does an incoming req see
system.mem_ctrls.rdQLenPdf::17                      0                       # What read queue length does an incoming req see
system.mem_ctrls.rdQLenPdf::18                      0                       # What read queue length does an incoming req see
system.mem_ctrls.rdQLenPdf::19                      0                       # What read queue length does an incoming req see
system.mem_ctrls.rdQLenPdf::20                      0                       # What read queue length does an incoming req see
system.mem_ctrls.rdQLenPdf::21                      0                       # What read queue length does an incoming req see
system.mem_ctrls.rdQLenPdf::22                      0                       # What read queue length does an incoming req see
system.mem_ctrls.rdQLenPdf::23                      0                       # What read queue length does an incoming req see
system.mem_ctrls.rdQLenPdf::24                      0                       # What read queue length does an incoming req see
system.mem_ctrls.rdQLenPdf::25                      0                       # What read queue length does an incoming req see
system.mem_ctrls.rdQLenPdf::26                      0                       # What read queue length does an incoming req see
system.mem_ctrls.rdQLenPdf::27                      0                       # What read queue length does an incoming req see
system.mem_ctrls.rdQLenPdf::28                      0                       # What read queue length does an incoming req see
system.mem_ctrls.rdQLenPdf::29                      0                       # What read queue length does an incoming req see
system.mem_ctrls.rdQLenPdf::30                      0                       # What read queue length does an incoming req see
system.mem_ctrls.rdQLenPdf::31                      0                       # What read queue length does an incoming req see
system.mem_ctrls.wrQLenPdf::0                       0                       # What write queue length does an incoming req see
system.mem_ctrls.wrQLenPdf::1                       0                       # What write queue length does an incoming req see
system.mem_ctrls.wrQLenPdf::2                       0                       # What write queue length does an incoming req see
system.mem_ctrls.wrQLenPdf::3                       0                       # What write queue length does an incoming req see
system.mem_ctrls.wrQLenPdf::4                       0                       # What write queue length does an incoming req see
system.mem_ctrls.wrQLenPdf::5                       0                       # What write queue length does an incoming req see
system.mem_ctrls.wrQLenPdf::6                       0                       # What write queue length does an incoming req see
system.mem_ctrls.wrQLenPdf::7                       0                       # What write queue length does an incoming req see
system.mem_ctrls.wrQLenPdf::8                       0                       # What write queue length does an incoming req see
system.mem_ctrls.wrQLenPdf::9                       0                       # What write queue length does an incoming req see
system.mem_ctrls.wrQLenPdf::10                      0                       # What write queue length does an incoming req see
system.mem_ctrls.wrQLenPdf::11                      0                       # What write queue length does an incoming req see
system.mem_ctrls.wrQLenPdf::12                      0                       # What write queue length does an incoming req see
system.mem_ctrls.wrQLenPdf::13                      0                       # What write queue length does an incoming req see
system.mem_ctrls.wrQLenPdf::14                      0                       # What write queue length does an incoming req see
system.mem_ctrls.wrQLenPdf::15                   2290                       # What write queue length does an incoming req see
system.mem_ctrls.wrQLenPdf::16                   2686                       # What write queue length does an incoming req see
system.mem_ctrls.wrQLenPdf::17                 122594                       # What write queue length does an incoming req see
system.mem_ctrls.wrQLenPdf::18                 123595                       # What write queue length does an incoming req see
system.mem_ctrls.wrQLenPdf::19                 123625                       # What write queue length does an incoming req see
system.mem_ctrls.wrQLenPdf::20                 123538                       # What write queue length does an incoming req see
system.mem_ctrls.wrQLenPdf::21                 123549                       # What write queue length does an incoming req see
system.mem_ctrls.wrQLenPdf::22                 123544                       # What write queue length does an incoming req see
system.mem_ctrls.wrQLenPdf::23                 123489                       # What write queue length does an incoming req see
system.mem_ctrls.wrQLenPdf::24                 123496                       # What write queue length does an incoming req see
system.mem_ctrls.wrQLenPdf::25                 123477                       # What write queue length does an incoming req see
system.mem_ctrls.wrQLenPdf::26                 123496                       # What write queue length does an incoming req see
system.mem_ctrls.wrQLenPdf::27                 123477                       # What write queue length does an incoming req see
system.mem_ctrls.wrQLenPdf::28                 123477                       # What write queue length does an incoming req see
system.mem_ctrls.wrQLenPdf::29                 123484                       # What write queue length does an incoming req see
system.mem_ctrls.wrQLenPdf::30                 123465                       # What write queue length does an incoming req see
system.mem_ctrls.wrQLenPdf::31                 123436                       # What write queue length does an incoming req see
system.mem_ctrls.wrQLenPdf::32                 123428                       # What write queue length does an incoming req see
system.mem_ctrls.wrQLenPdf::33                      8                       # What write queue length does an incoming req see
system.mem_ctrls.wrQLenPdf::34                      1                       # What write queue length does an incoming req see
system.mem_ctrls.wrQLenPdf::35                      1                       # What write queue length does an incoming req see
system.mem_ctrls.wrQLenPdf::36                      1                       # What write queue length does an incoming req see
system.mem_ctrls.wrQLenPdf::37                      0                       # What write queue length does an incoming req see
system.mem_ctrls.wrQLenPdf::38                      0                       # What write queue length does an incoming req see
system.mem_ctrls.wrQLenPdf::39                      0                       # What write queue length does an incoming req see
system.mem_ctrls.wrQLenPdf::40                      0                       # What write queue length does an incoming req see
system.mem_ctrls.wrQLenPdf::41                      0                       # What write queue length does an incoming req see
system.mem_ctrls.wrQLenPdf::42                      0                       # What write queue length does an incoming req see
system.mem_ctrls.wrQLenPdf::43                      0                       # What write queue length does an incoming req see
system.mem_ctrls.wrQLenPdf::44                      0                       # What write queue length does an incoming req see
system.mem_ctrls.wrQLenPdf::45                      0                       # What write queue length does an incoming req see
system.mem_ctrls.wrQLenPdf::46                      0                       # What write queue length does an incoming req see
system.mem_ctrls.wrQLenPdf::47                      0                       # What write queue length does an incoming req see
system.mem_ctrls.wrQLenPdf::48                      0                       # What write queue length does an incoming req see
system.mem_ctrls.wrQLenPdf::49                      0                       # What write queue length does an incoming req see
system.mem_ctrls.wrQLenPdf::50                      0                       # What write queue length does an incoming req see
system.mem_ctrls.wrQLenPdf::51                      0                       # What write queue length does an incoming req see
system.mem_ctrls.wrQLenPdf::52                      0                       # What write queue length does an incoming req see
system.mem_ctrls.wrQLenPdf::53                      0                       # What write queue length does an incoming req see
system.mem_ctrls.wrQLenPdf::54                      0                       # What write queue length does an incoming req see
system.mem_ctrls.wrQLenPdf::55                      0                       # What write queue length does an incoming req see
system.mem_ctrls.wrQLenPdf::56                      0                       # What write queue length does an incoming req see
system.mem_ctrls.wrQLenPdf::57                      0                       # What write queue length does an incoming req see
system.mem_ctrls.wrQLenPdf::58                      0                       # What write queue length does an incoming req see
system.mem_ctrls.wrQLenPdf::59                      0                       # What write queue length does an incoming req see
system.mem_ctrls.wrQLenPdf::60                      0                       # What write queue length does an incoming req see
system.mem_ctrls.wrQLenPdf::61                      0                       # What write queue length does an incoming req see
system.mem_ctrls.wrQLenPdf::62                      0                       # What write queue length does an incoming req see
system.mem_ctrls.wrQLenPdf::63                      0                       # What write queue length does an incoming req see
system.mem_ctrls.bytesPerActivate::samples      5138148                       # Bytes accessed per row activation
system.mem_ctrls.bytesPerActivate::mean     78.054558                       # Bytes accessed per row activation
system.mem_ctrls.bytesPerActivate::gmean    72.015690                       # Bytes accessed per row activation
system.mem_ctrls.bytesPerActivate::stdev    53.877439                       # Bytes accessed per row activation
system.mem_ctrls.bytesPerActivate::0-127      4467382     86.95%     86.95% # Bytes accessed per row activation
system.mem_ctrls.bytesPerActivate::128-255       620638     12.08%     99.02% # Bytes accessed per row activation
system.mem_ctrls.bytesPerActivate::256-383        30478      0.59%     99.62% # Bytes accessed per row activation
system.mem_ctrls.bytesPerActivate::384-511         7662      0.15%     99.77% # Bytes accessed per row activation
system.mem_ctrls.bytesPerActivate::512-639         2147      0.04%     99.81% # Bytes accessed per row activation
system.mem_ctrls.bytesPerActivate::640-767         1117      0.02%     99.83% # Bytes accessed per row activation
system.mem_ctrls.bytesPerActivate::768-895          774      0.02%     99.85% # Bytes accessed per row activation
system.mem_ctrls.bytesPerActivate::896-1023          617      0.01%     99.86% # Bytes accessed per row activation
system.mem_ctrls.bytesPerActivate::1024-1151         7333      0.14%    100.00% # Bytes accessed per row activation
system.mem_ctrls.bytesPerActivate::total      5138148                       # Bytes accessed per row activation
system.mem_ctrls.rdPerTurnAround::samples       123424                       # Reads before turning the bus around for writes
system.mem_ctrls.rdPerTurnAround::mean      34.728805                       # Reads before turning the bus around for writes
system.mem_ctrls.rdPerTurnAround::stdev     12.697688                       # Reads before turning the bus around for writes
system.mem_ctrls.rdPerTurnAround::0-31          46374     37.57%     37.57% # Reads before turning the bus around for writes
system.mem_ctrls.rdPerTurnAround::32-63         75884     61.48%     99.06% # Reads before turning the bus around for writes
system.mem_ctrls.rdPerTurnAround::64-95           211      0.17%     99.23% # Reads before turning the bus around for writes
system.mem_ctrls.rdPerTurnAround::96-127          281      0.23%     99.45% # Reads before turning the bus around for writes
system.mem_ctrls.rdPerTurnAround::128-159          375      0.30%     99.76% # Reads before turning the bus around for writes
system.mem_ctrls.rdPerTurnAround::160-191          221      0.18%     99.94% # Reads before turning the bus around for writes
system.mem_ctrls.rdPerTurnAround::192-223           51      0.04%     99.98% # Reads before turning the bus around for writes
system.mem_ctrls.rdPerTurnAround::224-255           14      0.01%     99.99% # Reads before turning the bus around for writes
system.mem_ctrls.rdPerTurnAround::288-319            1      0.00%     99.99% # Reads before turning the bus around for writes
system.mem_ctrls.rdPerTurnAround::352-383            3      0.00%     99.99% # Reads before turning the bus around for writes
system.mem_ctrls.rdPerTurnAround::384-415            3      0.00%    100.00% # Reads before turning the bus around for writes
system.mem_ctrls.rdPerTurnAround::416-447            4      0.00%    100.00% # Reads before turning the bus around for writes
system.mem_ctrls.rdPerTurnAround::448-479            1      0.00%    100.00% # Reads before turning the bus around for writes
system.mem_ctrls.rdPerTurnAround::960-991            1      0.00%    100.00% # Reads before turning the bus around for writes
system.mem_ctrls.rdPerTurnAround::total        123424                       # Reads before turning the bus around for writes
system.mem_ctrls.wrPerTurnAround::samples       123424                       # Writes before turning the bus around for reads
system.mem_ctrls.wrPerTurnAround::mean      16.043525                       # Writes before turning the bus around for reads
system.mem_ctrls.wrPerTurnAround::gmean     16.040908                       # Writes before turning the bus around for reads
system.mem_ctrls.wrPerTurnAround::stdev      0.303599                       # Writes before turning the bus around for reads
system.mem_ctrls.wrPerTurnAround::16           120711     97.80%     97.80% # Writes before turning the bus around for reads
system.mem_ctrls.wrPerTurnAround::17              304      0.25%     98.05% # Writes before turning the bus around for reads
system.mem_ctrls.wrPerTurnAround::18             2272      1.84%     99.89% # Writes before turning the bus around for reads
system.mem_ctrls.wrPerTurnAround::19               59      0.05%     99.94% # Writes before turning the bus around for reads
system.mem_ctrls.wrPerTurnAround::20               64      0.05%     99.99% # Writes before turning the bus around for reads
system.mem_ctrls.wrPerTurnAround::21                6      0.00%     99.99% # Writes before turning the bus around for reads
system.mem_ctrls.wrPerTurnAround::22                5      0.00%    100.00% # Writes before turning the bus around for reads
system.mem_ctrls.wrPerTurnAround::24                1      0.00%    100.00% # Writes before turning the bus around for reads
system.mem_ctrls.wrPerTurnAround::26                1      0.00%    100.00% # Writes before turning the bus around for reads
system.mem_ctrls.wrPerTurnAround::29                1      0.00%    100.00% # Writes before turning the bus around for reads
system.mem_ctrls.wrPerTurnAround::total        123424                       # Writes before turning the bus around for reads
system.mem_ctrls.totQLat                  98419942780                       # Total ticks spent queuing
system.mem_ctrls.totMemAccLat            178788874030                       # Total ticks spent from burst creation until serviced by the DRAM
system.mem_ctrls.totBusLat                21431715000                       # Total ticks spent in databus transfers
system.mem_ctrls.avgQLat                     22961.28                       # Average queueing delay per DRAM burst
system.mem_ctrls.avgBusLat                    5000.00                       # Average bus latency per DRAM burst
system.mem_ctrls.avgMemAccLat                41711.28                       # Average memory access latency per DRAM burst
system.mem_ctrls.avgRdBW                       326.66                       # Average DRAM read bandwidth in MiByte/s
system.mem_ctrls.avgWrBW                       150.90                       # Average achieved write bandwidth in MiByte/s
system.mem_ctrls.avgRdBWSys                    163.36                       # Average system read bandwidth in MiByte/s
system.mem_ctrls.avgWrBWSys                     75.58                       # Average system write bandwidth in MiByte/s
system.mem_ctrls.peakBW                      12800.00                       # Theoretical peak bandwidth in MiByte/s
system.mem_ctrls.busUtil                         3.73                       # Data bus utilization in percentage
system.mem_ctrls.busUtilRead                     2.55                       # Data bus utilization in percentage for reads
system.mem_ctrls.busUtilWrite                    1.18                       # Data bus utilization in percentage for writes
system.mem_ctrls.avgRdQLen                       1.01                       # Average read queue length when enqueuing
system.mem_ctrls.avgWrQLen                      25.62                       # Average write queue length when enqueuing
system.mem_ctrls.readRowHits                  1040837                       # Number of row buffer hits during reads
system.mem_ctrls.writeRowHits                   87514                       # Number of row buffer hits during writes
system.mem_ctrls.readRowHitRate                 24.28                       # Row buffer hit rate for reads
system.mem_ctrls.writeRowHitRate                 4.42                       # Row buffer hit rate for writes
system.mem_ctrls.avgGap                     133922.98                       # Average gap between requests
system.mem_ctrls.pageHitRate                    18.01                       # Row buffer hit rate, read and write combined
system.mem_ctrls_0.actEnergy              19763064720                       # Energy for activate commands per rank (pJ)
system.mem_ctrls_0.preEnergy              10783418250                       # Energy for precharge commands per rank (pJ)
system.mem_ctrls_0.readEnergy             17214732600                       # Energy for read commands per rank (pJ)
system.mem_ctrls_0.writeEnergy             6456516480                       # Energy for write commands per rank (pJ)
system.mem_ctrls_0.refreshEnergy          55460502240                       # Energy for refresh commands per rank (pJ)
system.mem_ctrls_0.actBackEnergy         538817167890                       # Energy for active background per rank (pJ)
system.mem_ctrls_0.preBackEnergy          36826542000                       # Energy for precharge background per rank (pJ)
system.mem_ctrls_0.totalEnergy           685321944180                       # Total energy per rank (pJ)
system.mem_ctrls_0.averagePower            807.094823                       # Core power per rank (mW)
system.mem_ctrls_0.memoryStateTime::IDLE  54170310001                       # Time in different power states
system.mem_ctrls_0.memoryStateTime::REF   28042820000                       # Time in different power states
system.mem_ctrls_0.memoryStateTime::PRE_PDN            0                       # Time in different power states
system.mem_ctrls_0.memoryStateTime::ACT  757590874499                       # Time in different power states
system.mem_ctrls_0.memoryStateTime::ACT_PDN            0                       # Time in different power states
system.mem_ctrls_1.actEnergy              19143991440                       # Energy for activate commands per rank (pJ)
system.mem_ctrls_1.preEnergy              10445630250                       # Energy for precharge commands per rank (pJ)
system.mem_ctrls_1.readEnergy             16635590400                       # Energy for read commands per rank (pJ)
system.mem_ctrls_1.writeEnergy             6382832400                       # Energy for write commands per rank (pJ)
system.mem_ctrls_1.refreshEnergy          55460502240                       # Energy for refresh commands per rank (pJ)
system.mem_ctrls_1.actBackEnergy         541974965040                       # Energy for active background per rank (pJ)
system.mem_ctrls_1.preBackEnergy          34056544500                       # Energy for precharge background per rank (pJ)
system.mem_ctrls_1.totalEnergy           684100056270                       # Total energy per rank (pJ)
system.mem_ctrls_1.averagePower            805.655821                       # Core power per rank (mW)
system.mem_ctrls_1.memoryStateTime::IDLE  49995033500                       # Time in different power states
system.mem_ctrls_1.memoryStateTime::REF   28042820000                       # Time in different power states
system.mem_ctrls_1.memoryStateTime::PRE_PDN            0                       # Time in different power states
system.mem_ctrls_1.memoryStateTime::ACT  761765016500                       # Time in different power states
system.mem_ctrls_1.memoryStateTime::ACT_PDN            0                       # Time in different power states
system.cpu_voltage_domain.voltage                   1                       # Voltage in Volts
system.cpu_clk_domain.clock                       500                       # Clock period in ticks
system.cpu0.apic_clk_domain.clock                8000                       # Clock period in ticks
system.cpu0.numCycles                      1681845534                       # number of cpu cycles simulated
system.cpu0.numWorkItemsStarted                     0                       # number of work items this cpu started
system.cpu0.numWorkItemsCompleted                   0                       # number of work items this cpu completed
system.cpu0.kern.inst.arm                           0                       # number of arm instructions executed
system.cpu0.kern.inst.quiesce                       0                       # number of quiesce instructions executed
system.cpu0.committedInsts                    2264974                       # Number of instructions committed
system.cpu0.committedOps                      4570388                       # Number of ops (including micro ops) committed
system.cpu0.num_int_alu_accesses              4455615                       # Number of integer alu accesses
system.cpu0.num_fp_alu_accesses                   372                       # Number of float alu accesses
system.cpu0.num_func_calls                      99054                       # number of times a function call or return occured
system.cpu0.num_conditional_control_insts       388321                       # number of instructions that are conditional controls
system.cpu0.num_int_insts                     4455615                       # number of integer instructions
system.cpu0.num_fp_insts                          372                       # number of float instructions
system.cpu0.num_int_register_reads            8591879                       # number of times the integer registers were read
system.cpu0.num_int_register_writes           3642288                       # number of times the integer registers were written
system.cpu0.num_fp_register_reads                 596                       # number of times the floating registers were read
system.cpu0.num_fp_register_writes                261                       # number of times the floating registers were written
system.cpu0.num_cc_register_reads             2877395                       # number of times the CC registers were read
system.cpu0.num_cc_register_writes            1739561                       # number of times the CC registers were written
system.cpu0.num_mem_refs                       893714                       # number of memory refs
system.cpu0.num_load_insts                     551517                       # Number of load instructions
system.cpu0.num_store_insts                    342197                       # Number of store instructions
system.cpu0.num_idle_cycles              1666227170.320541                       # Number of idle cycles
system.cpu0.num_busy_cycles              15618363.679459                       # Number of busy cycles
system.cpu0.not_idle_fraction                0.009286                       # Percentage of non-idle cycles
system.cpu0.idle_fraction                    0.990714                       # Percentage of idle cycles
system.cpu0.Branches                           520750                       # Number of branches fetched
system.cpu0.op_class::No_OpClass                33974      0.74%      0.74% # Class of executed instruction
system.cpu0.op_class::IntAlu                  3628803     79.40%     80.14% # Class of executed instruction
system.cpu0.op_class::IntMult                    4220      0.09%     80.23% # Class of executed instruction
system.cpu0.op_class::IntDiv                     9521      0.21%     80.44% # Class of executed instruction
system.cpu0.op_class::FloatAdd                    244      0.01%     80.45% # Class of executed instruction
system.cpu0.op_class::FloatCmp                      0      0.00%     80.45% # Class of executed instruction
system.cpu0.op_class::FloatCvt                      0      0.00%     80.45% # Class of executed instruction
system.cpu0.op_class::FloatMult                     0      0.00%     80.45% # Class of executed instruction
system.cpu0.op_class::FloatDiv                      0      0.00%     80.45% # Class of executed instruction
system.cpu0.op_class::FloatSqrt                     0      0.00%     80.45% # Class of executed instruction
system.cpu0.op_class::SimdAdd                       0      0.00%     80.45% # Class of executed instruction
system.cpu0.op_class::SimdAddAcc                    0      0.00%     80.45% # Class of executed instruction
system.cpu0.op_class::SimdAlu                       0      0.00%     80.45% # Class of executed instruction
system.cpu0.op_class::SimdCmp                       0      0.00%     80.45% # Class of executed instruction
system.cpu0.op_class::SimdCvt                       0      0.00%     80.45% # Class of executed instruction
system.cpu0.op_class::SimdMisc                      0      0.00%     80.45% # Class of executed instruction
system.cpu0.op_class::SimdMult                      0      0.00%     80.45% # Class of executed instruction
system.cpu0.op_class::SimdMultAcc                   0      0.00%     80.45% # Class of executed instruction
system.cpu0.op_class::SimdShift                     0      0.00%     80.45% # Class of executed instruction
system.cpu0.op_class::SimdShiftAcc                  0      0.00%     80.45% # Class of executed instruction
system.cpu0.op_class::SimdSqrt                      0      0.00%     80.45% # Class of executed instruction
system.cpu0.op_class::SimdFloatAdd                  0      0.00%     80.45% # Class of executed instruction
system.cpu0.op_class::SimdFloatAlu                  0      0.00%     80.45% # Class of executed instruction
system.cpu0.op_class::SimdFloatCmp                  0      0.00%     80.45% # Class of executed instruction
system.cpu0.op_class::SimdFloatCvt                  0      0.00%     80.45% # Class of executed instruction
system.cpu0.op_class::SimdFloatDiv                  0      0.00%     80.45% # Class of executed instruction
system.cpu0.op_class::SimdFloatMisc                 0      0.00%     80.45% # Class of executed instruction
system.cpu0.op_class::SimdFloatMult                 0      0.00%     80.45% # Class of executed instruction
system.cpu0.op_class::SimdFloatMultAcc              0      0.00%     80.45% # Class of executed instruction
system.cpu0.op_class::SimdFloatSqrt                 0      0.00%     80.45% # Class of executed instruction
system.cpu0.op_class::MemRead                  551517     12.07%     92.51% # Class of executed instruction
system.cpu0.op_class::MemWrite                 342197      7.49%    100.00% # Class of executed instruction
system.cpu0.op_class::IprAccess                     0      0.00%    100.00% # Class of executed instruction
system.cpu0.op_class::InstPrefetch                  0      0.00%    100.00% # Class of executed instruction
system.cpu0.op_class::total                   4570476                       # Class of executed instruction
system.cpu1.apic_clk_domain.clock                8000                       # Clock period in ticks
system.cpu1.numCycles                      1674314202                       # number of cpu cycles simulated
system.cpu1.numWorkItemsStarted                     0                       # number of work items this cpu started
system.cpu1.numWorkItemsCompleted                   0                       # number of work items this cpu completed
system.cpu1.kern.inst.arm                           0                       # number of arm instructions executed
system.cpu1.kern.inst.quiesce                       0                       # number of quiesce instructions executed
system.cpu1.committedInsts                    2379430                       # Number of instructions committed
system.cpu1.committedOps                      4830133                       # Number of ops (including micro ops) committed
system.cpu1.num_int_alu_accesses              4748078                       # Number of integer alu accesses
system.cpu1.num_fp_alu_accesses                    68                       # Number of float alu accesses
system.cpu1.num_func_calls                     114252                       # number of times a function call or return occured
system.cpu1.num_conditional_control_insts       414310                       # number of instructions that are conditional controls
system.cpu1.num_int_insts                     4748078                       # number of integer instructions
system.cpu1.num_fp_insts                           68                       # number of float instructions
system.cpu1.num_int_register_reads            9265563                       # number of times the integer registers were read
system.cpu1.num_int_register_writes           3901309                       # number of times the integer registers were written
system.cpu1.num_fp_register_reads                  70                       # number of times the floating registers were read
system.cpu1.num_fp_register_writes                 62                       # number of times the floating registers were written
system.cpu1.num_cc_register_reads             3056189                       # number of times the CC registers were read
system.cpu1.num_cc_register_writes            1657196                       # number of times the CC registers were written
system.cpu1.num_mem_refs                       958833                       # number of memory refs
system.cpu1.num_load_insts                     614478                       # Number of load instructions
system.cpu1.num_store_insts                    344355                       # Number of store instructions
system.cpu1.num_idle_cycles              1660789899.269100                       # Number of idle cycles
system.cpu1.num_busy_cycles              13524302.730900                       # Number of busy cycles
system.cpu1.not_idle_fraction                0.008078                       # Percentage of non-idle cycles
system.cpu1.idle_fraction                    0.991922                       # Percentage of idle cycles
system.cpu1.Branches                           566017                       # Number of branches fetched
system.cpu1.op_class::No_OpClass                48594      1.01%      1.01% # Class of executed instruction
system.cpu1.op_class::IntAlu                  3805712     78.78%     79.79% # Class of executed instruction
system.cpu1.op_class::IntMult                    7673      0.16%     79.95% # Class of executed instruction
system.cpu1.op_class::IntDiv                     9858      0.20%     80.15% # Class of executed instruction
system.cpu1.op_class::FloatAdd                     24      0.00%     80.15% # Class of executed instruction
system.cpu1.op_class::FloatCmp                      0      0.00%     80.15% # Class of executed instruction
system.cpu1.op_class::FloatCvt                      0      0.00%     80.15% # Class of executed instruction
system.cpu1.op_class::FloatMult                     0      0.00%     80.15% # Class of executed instruction
system.cpu1.op_class::FloatDiv                      0      0.00%     80.15% # Class of executed instruction
system.cpu1.op_class::FloatSqrt                     0      0.00%     80.15% # Class of executed instruction
system.cpu1.op_class::SimdAdd                       0      0.00%     80.15% # Class of executed instruction
system.cpu1.op_class::SimdAddAcc                    0      0.00%     80.15% # Class of executed instruction
system.cpu1.op_class::SimdAlu                       0      0.00%     80.15% # Class of executed instruction
system.cpu1.op_class::SimdCmp                       0      0.00%     80.15% # Class of executed instruction
system.cpu1.op_class::SimdCvt                       0      0.00%     80.15% # Class of executed instruction
system.cpu1.op_class::SimdMisc                      0      0.00%     80.15% # Class of executed instruction
system.cpu1.op_class::SimdMult                      0      0.00%     80.15% # Class of executed instruction
system.cpu1.op_class::SimdMultAcc                   0      0.00%     80.15% # Class of executed instruction
system.cpu1.op_class::SimdShift                     0      0.00%     80.15% # Class of executed instruction
system.cpu1.op_class::SimdShiftAcc                  0      0.00%     80.15% # Class of executed instruction
system.cpu1.op_class::SimdSqrt                      0      0.00%     80.15% # Class of executed instruction
system.cpu1.op_class::SimdFloatAdd                  0      0.00%     80.15% # Class of executed instruction
system.cpu1.op_class::SimdFloatAlu                  0      0.00%     80.15% # Class of executed instruction
system.cpu1.op_class::SimdFloatCmp                  0      0.00%     80.15% # Class of executed instruction
system.cpu1.op_class::SimdFloatCvt                  0      0.00%     80.15% # Class of executed instruction
system.cpu1.op_class::SimdFloatDiv                  0      0.00%     80.15% # Class of executed instruction
system.cpu1.op_class::SimdFloatMisc                 0      0.00%     80.15% # Class of executed instruction
system.cpu1.op_class::SimdFloatMult                 0      0.00%     80.15% # Class of executed instruction
system.cpu1.op_class::SimdFloatMultAcc              0      0.00%     80.15% # Class of executed instruction
system.cpu1.op_class::SimdFloatSqrt                 0      0.00%     80.15% # Class of executed instruction
system.cpu1.op_class::MemRead                  614478     12.72%     92.87% # Class of executed instruction
system.cpu1.op_class::MemWrite                 344355      7.13%    100.00% # Class of executed instruction
system.cpu1.op_class::IprAccess                     0      0.00%    100.00% # Class of executed instruction
system.cpu1.op_class::InstPrefetch                  0      0.00%    100.00% # Class of executed instruction
system.cpu1.op_class::total                   4830694                       # Class of executed instruction
system.cpu2.apic_clk_domain.clock                8000                       # Clock period in ticks
system.cpu2.numCycles                      1677301169                       # number of cpu cycles simulated
system.cpu2.numWorkItemsStarted                     0                       # number of work items this cpu started
system.cpu2.numWorkItemsCompleted                   0                       # number of work items this cpu completed
system.cpu2.kern.inst.arm                           0                       # number of arm instructions executed
system.cpu2.kern.inst.quiesce                       0                       # number of quiesce instructions executed
system.cpu2.committedInsts                    2823891                       # Number of instructions committed
system.cpu2.committedOps                      5563702                       # Number of ops (including micro ops) committed
system.cpu2.num_int_alu_accesses              5475842                       # Number of integer alu accesses
system.cpu2.num_fp_alu_accesses                  1813                       # Number of float alu accesses
system.cpu2.num_func_calls                     135304                       # number of times a function call or return occured
system.cpu2.num_conditional_control_insts       508673                       # number of instructions that are conditional controls
system.cpu2.num_int_insts                     5475842                       # number of integer instructions
system.cpu2.num_fp_insts                         1813                       # number of float instructions
system.cpu2.num_int_register_reads           10723911                       # number of times the integer registers were read
system.cpu2.num_int_register_writes           4434062                       # number of times the integer registers were written
system.cpu2.num_fp_register_reads                3040                       # number of times the floating registers were read
system.cpu2.num_fp_register_writes               1440                       # number of times the floating registers were written
system.cpu2.num_cc_register_reads             3679891                       # number of times the CC registers were read
system.cpu2.num_cc_register_writes            1962299                       # number of times the CC registers were written
system.cpu2.num_mem_refs                      1188887                       # number of memory refs
system.cpu2.num_load_insts                     770418                       # Number of load instructions
system.cpu2.num_store_insts                    418469                       # Number of store instructions
system.cpu2.num_idle_cycles              1662059568.594045                       # Number of idle cycles
system.cpu2.num_busy_cycles              15241600.405955                       # Number of busy cycles
system.cpu2.not_idle_fraction                0.009087                       # Percentage of non-idle cycles
system.cpu2.idle_fraction                    0.990913                       # Percentage of idle cycles
system.cpu2.Branches                           669199                       # Number of branches fetched
system.cpu2.op_class::No_OpClass                30360      0.55%      0.55% # Class of executed instruction
system.cpu2.op_class::IntAlu                  4329914     77.82%     78.37% # Class of executed instruction
system.cpu2.op_class::IntMult                    4322      0.08%     78.45% # Class of executed instruction
system.cpu2.op_class::IntDiv                     8955      0.16%     78.61% # Class of executed instruction
system.cpu2.op_class::FloatAdd                   1356      0.02%     78.63% # Class of executed instruction
system.cpu2.op_class::FloatCmp                      0      0.00%     78.63% # Class of executed instruction
system.cpu2.op_class::FloatCvt                      0      0.00%     78.63% # Class of executed instruction
system.cpu2.op_class::FloatMult                     0      0.00%     78.63% # Class of executed instruction
system.cpu2.op_class::FloatDiv                      0      0.00%     78.63% # Class of executed instruction
system.cpu2.op_class::FloatSqrt                     0      0.00%     78.63% # Class of executed instruction
system.cpu2.op_class::SimdAdd                       0      0.00%     78.63% # Class of executed instruction
system.cpu2.op_class::SimdAddAcc                    0      0.00%     78.63% # Class of executed instruction
system.cpu2.op_class::SimdAlu                       0      0.00%     78.63% # Class of executed instruction
system.cpu2.op_class::SimdCmp                       0      0.00%     78.63% # Class of executed instruction
system.cpu2.op_class::SimdCvt                       0      0.00%     78.63% # Class of executed instruction
system.cpu2.op_class::SimdMisc                      0      0.00%     78.63% # Class of executed instruction
system.cpu2.op_class::SimdMult                      0      0.00%     78.63% # Class of executed instruction
system.cpu2.op_class::SimdMultAcc                   0      0.00%     78.63% # Class of executed instruction
system.cpu2.op_class::SimdShift                     0      0.00%     78.63% # Class of executed instruction
system.cpu2.op_class::SimdShiftAcc                  0      0.00%     78.63% # Class of executed instruction
system.cpu2.op_class::SimdSqrt                      0      0.00%     78.63% # Class of executed instruction
system.cpu2.op_class::SimdFloatAdd                  0      0.00%     78.63% # Class of executed instruction
system.cpu2.op_class::SimdFloatAlu                  0      0.00%     78.63% # Class of executed instruction
system.cpu2.op_class::SimdFloatCmp                  0      0.00%     78.63% # Class of executed instruction
system.cpu2.op_class::SimdFloatCvt                  0      0.00%     78.63% # Class of executed instruction
system.cpu2.op_class::SimdFloatDiv                  0      0.00%     78.63% # Class of executed instruction
system.cpu2.op_class::SimdFloatMisc                 0      0.00%     78.63% # Class of executed instruction
system.cpu2.op_class::SimdFloatMult                 0      0.00%     78.63% # Class of executed instruction
system.cpu2.op_class::SimdFloatMultAcc              0      0.00%     78.63% # Class of executed instruction
system.cpu2.op_class::SimdFloatSqrt                 0      0.00%     78.63% # Class of executed instruction
system.cpu2.op_class::MemRead                  770418     13.85%     92.48% # Class of executed instruction
system.cpu2.op_class::MemWrite                 418469      7.52%    100.00% # Class of executed instruction
system.cpu2.op_class::IprAccess                     0      0.00%    100.00% # Class of executed instruction
system.cpu2.op_class::InstPrefetch                  0      0.00%    100.00% # Class of executed instruction
system.cpu2.op_class::total                   5563794                       # Class of executed instruction
system.cpu3.apic_clk_domain.clock                8000                       # Clock period in ticks
system.cpu3.numCycles                      1681396085                       # number of cpu cycles simulated
system.cpu3.numWorkItemsStarted                     0                       # number of work items this cpu started
system.cpu3.numWorkItemsCompleted                   0                       # number of work items this cpu completed
system.cpu3.kern.inst.arm                           0                       # number of arm instructions executed
system.cpu3.kern.inst.quiesce                       0                       # number of quiesce instructions executed
system.cpu3.committedInsts                  269322474                       # Number of instructions committed
system.cpu3.committedOps                    442649526                       # Number of ops (including micro ops) committed
system.cpu3.num_int_alu_accesses            346622216                       # Number of integer alu accesses
system.cpu3.num_fp_alu_accesses             109595121                       # Number of float alu accesses
system.cpu3.num_func_calls                    5377835                       # number of times a function call or return occured
system.cpu3.num_conditional_control_insts     16423326                       # number of instructions that are conditional controls
system.cpu3.num_int_insts                   346622216                       # number of integer instructions
system.cpu3.num_fp_insts                    109595121                       # number of float instructions
system.cpu3.num_int_register_reads          737282494                       # number of times the integer registers were read
system.cpu3.num_int_register_writes         276127927                       # number of times the integer registers were written
system.cpu3.num_fp_register_reads           204619132                       # number of times the floating registers were read
system.cpu3.num_fp_register_writes          105642132                       # number of times the floating registers were written
system.cpu3.num_cc_register_reads           177480936                       # number of times the CC registers were read
system.cpu3.num_cc_register_writes          152802181                       # number of times the CC registers were written
system.cpu3.num_mem_refs                     92910829                       # number of memory refs
system.cpu3.num_load_insts                   73875365                       # Number of load instructions
system.cpu3.num_store_insts                  19035464                       # Number of store instructions
system.cpu3.num_idle_cycles              21259079.858334                       # Number of idle cycles
system.cpu3.num_busy_cycles              1660137005.141666                       # Number of busy cycles
system.cpu3.not_idle_fraction                0.987356                       # Percentage of non-idle cycles
system.cpu3.idle_fraction                    0.012644                       # Percentage of idle cycles
system.cpu3.Branches                         26497560                       # Number of branches fetched
system.cpu3.op_class::No_OpClass              3913122      0.88%      0.88% # Class of executed instruction
system.cpu3.op_class::IntAlu                254808175     57.56%     58.45% # Class of executed instruction
system.cpu3.op_class::IntMult                    3552      0.00%     58.45% # Class of executed instruction
system.cpu3.op_class::IntDiv                      477      0.00%     58.45% # Class of executed instruction
system.cpu3.op_class::FloatAdd               91015907     20.56%     79.01% # Class of executed instruction
system.cpu3.op_class::FloatCmp                      0      0.00%     79.01% # Class of executed instruction
system.cpu3.op_class::FloatCvt                      0      0.00%     79.01% # Class of executed instruction
system.cpu3.op_class::FloatMult                     0      0.00%     79.01% # Class of executed instruction
system.cpu3.op_class::FloatDiv                      0      0.00%     79.01% # Class of executed instruction
system.cpu3.op_class::FloatSqrt                     0      0.00%     79.01% # Class of executed instruction
system.cpu3.op_class::SimdAdd                       0      0.00%     79.01% # Class of executed instruction
system.cpu3.op_class::SimdAddAcc                    0      0.00%     79.01% # Class of executed instruction
system.cpu3.op_class::SimdAlu                       0      0.00%     79.01% # Class of executed instruction
system.cpu3.op_class::SimdCmp                       0      0.00%     79.01% # Class of executed instruction
system.cpu3.op_class::SimdCvt                       0      0.00%     79.01% # Class of executed instruction
system.cpu3.op_class::SimdMisc                      0      0.00%     79.01% # Class of executed instruction
system.cpu3.op_class::SimdMult                      0      0.00%     79.01% # Class of executed instruction
system.cpu3.op_class::SimdMultAcc                   0      0.00%     79.01% # Class of executed instruction
system.cpu3.op_class::SimdShift                     0      0.00%     79.01% # Class of executed instruction
system.cpu3.op_class::SimdShiftAcc                  0      0.00%     79.01% # Class of executed instruction
system.cpu3.op_class::SimdSqrt                      0      0.00%     79.01% # Class of executed instruction
system.cpu3.op_class::SimdFloatAdd                  0      0.00%     79.01% # Class of executed instruction
system.cpu3.op_class::SimdFloatAlu                  0      0.00%     79.01% # Class of executed instruction
system.cpu3.op_class::SimdFloatCmp                  0      0.00%     79.01% # Class of executed instruction
system.cpu3.op_class::SimdFloatCvt                  0      0.00%     79.01% # Class of executed instruction
system.cpu3.op_class::SimdFloatDiv                  0      0.00%     79.01% # Class of executed instruction
system.cpu3.op_class::SimdFloatMisc                 0      0.00%     79.01% # Class of executed instruction
system.cpu3.op_class::SimdFloatMult                 0      0.00%     79.01% # Class of executed instruction
system.cpu3.op_class::SimdFloatMultAcc              0      0.00%     79.01% # Class of executed instruction
system.cpu3.op_class::SimdFloatSqrt                 0      0.00%     79.01% # Class of executed instruction
system.cpu3.op_class::MemRead                73875365     16.69%     95.70% # Class of executed instruction
system.cpu3.op_class::MemWrite               19035464      4.30%    100.00% # Class of executed instruction
system.cpu3.op_class::IprAccess                     0      0.00%    100.00% # Class of executed instruction
system.cpu3.op_class::InstPrefetch                  0      0.00%    100.00% # Class of executed instruction
system.cpu3.op_class::total                 442652062                       # Class of executed instruction
system.iobus.trans_dist::ReadReq                  556                       # Transaction distribution
system.iobus.trans_dist::ReadResp                 556                       # Transaction distribution
system.iobus.trans_dist::WriteReq                1856                       # Transaction distribution
system.iobus.trans_dist::WriteResp               1856                       # Transaction distribution
system.iobus.trans_dist::MessageReq                76                       # Transaction distribution
system.iobus.trans_dist::MessageResp               76                       # Transaction distribution
system.iobus.pkt_count_system.pc.south_bridge.io_apic.int_master::system.ruby.l1_cntrl0.sequencer.pio-slave-port           32                       # Packet count per connected master and slave (bytes)
system.iobus.pkt_count_system.pc.south_bridge.io_apic.int_master::system.ruby.l1_cntrl1.sequencer.pio-slave-port           30                       # Packet count per connected master and slave (bytes)
system.iobus.pkt_count_system.pc.south_bridge.io_apic.int_master::system.ruby.l1_cntrl2.sequencer.pio-slave-port           32                       # Packet count per connected master and slave (bytes)
system.iobus.pkt_count_system.pc.south_bridge.io_apic.int_master::system.ruby.l1_cntrl3.sequencer.pio-slave-port           32                       # Packet count per connected master and slave (bytes)
system.iobus.pkt_count_system.pc.south_bridge.io_apic.int_master::total          126                       # Packet count per connected master and slave (bytes)
system.iobus.pkt_count_system.ruby.l1_cntrl0.sequencer.mem-master-port::system.pc.south_bridge.ide.pio          656                       # Packet count per connected master and slave (bytes)
system.iobus.pkt_count_system.ruby.l1_cntrl0.sequencer.mem-master-port::system.pc.south_bridge.io_apic.pio            8                       # Packet count per connected master and slave (bytes)
system.iobus.pkt_count_system.ruby.l1_cntrl0.sequencer.mem-master-port::system.pc.com_1.pio            2                       # Packet count per connected master and slave (bytes)
system.iobus.pkt_count_system.ruby.l1_cntrl0.sequencer.mem-master-port::system.ruby.l1_cntrl0.sequencer.pio-slave-port          484                       # Packet count per connected master and slave (bytes)
system.iobus.pkt_count_system.ruby.l1_cntrl0.sequencer.mem-master-port::system.ruby.l1_cntrl1.sequencer.pio-slave-port            4                       # Packet count per connected master and slave (bytes)
system.iobus.pkt_count_system.ruby.l1_cntrl0.sequencer.mem-master-port::system.ruby.l1_cntrl3.sequencer.pio-slave-port            4                       # Packet count per connected master and slave (bytes)
system.iobus.pkt_count_system.ruby.l1_cntrl0.sequencer.mem-master-port::total         1158                       # Packet count per connected master and slave (bytes)
system.iobus.pkt_count_system.ruby.l1_cntrl1.sequencer.mem-master-port::system.pc.south_bridge.ide.pio          848                       # Packet count per connected master and slave (bytes)
system.iobus.pkt_count_system.ruby.l1_cntrl1.sequencer.mem-master-port::system.pc.south_bridge.io_apic.pio            6                       # Packet count per connected master and slave (bytes)
system.iobus.pkt_count_system.ruby.l1_cntrl1.sequencer.mem-master-port::system.pc.com_1.pio          174                       # Packet count per connected master and slave (bytes)
system.iobus.pkt_count_system.ruby.l1_cntrl1.sequencer.mem-master-port::system.ruby.l1_cntrl0.sequencer.pio-slave-port            2                       # Packet count per connected master and slave (bytes)
system.iobus.pkt_count_system.ruby.l1_cntrl1.sequencer.mem-master-port::system.ruby.l1_cntrl1.sequencer.pio-slave-port          470                       # Packet count per connected master and slave (bytes)
system.iobus.pkt_count_system.ruby.l1_cntrl1.sequencer.mem-master-port::system.ruby.l1_cntrl2.sequencer.pio-slave-port            2                       # Packet count per connected master and slave (bytes)
system.iobus.pkt_count_system.ruby.l1_cntrl1.sequencer.mem-master-port::total         1502                       # Packet count per connected master and slave (bytes)
system.iobus.pkt_count_system.ruby.l1_cntrl2.sequencer.mem-master-port::system.pc.south_bridge.ide.pio          622                       # Packet count per connected master and slave (bytes)
system.iobus.pkt_count_system.ruby.l1_cntrl2.sequencer.mem-master-port::system.pc.south_bridge.io_apic.pio            8                       # Packet count per connected master and slave (bytes)
system.iobus.pkt_count_system.ruby.l1_cntrl2.sequencer.mem-master-port::system.ruby.l1_cntrl0.sequencer.pio-slave-port            2                       # Packet count per connected master and slave (bytes)
system.iobus.pkt_count_system.ruby.l1_cntrl2.sequencer.mem-master-port::system.ruby.l1_cntrl1.sequencer.pio-slave-port            2                       # Packet count per connected master and slave (bytes)
system.iobus.pkt_count_system.ruby.l1_cntrl2.sequencer.mem-master-port::system.ruby.l1_cntrl2.sequencer.pio-slave-port          474                       # Packet count per connected master and slave (bytes)
system.iobus.pkt_count_system.ruby.l1_cntrl2.sequencer.mem-master-port::system.ruby.l1_cntrl3.sequencer.pio-slave-port            2                       # Packet count per connected master and slave (bytes)
system.iobus.pkt_count_system.ruby.l1_cntrl2.sequencer.mem-master-port::total         1110                       # Packet count per connected master and slave (bytes)
system.iobus.pkt_count_system.ruby.l1_cntrl3.sequencer.mem-master-port::system.pc.south_bridge.ide.pio          588                       # Packet count per connected master and slave (bytes)
system.iobus.pkt_count_system.ruby.l1_cntrl3.sequencer.mem-master-port::system.pc.south_bridge.io_apic.pio            8                       # Packet count per connected master and slave (bytes)
system.iobus.pkt_count_system.ruby.l1_cntrl3.sequencer.mem-master-port::system.ruby.l1_cntrl0.sequencer.pio-slave-port            4                       # Packet count per connected master and slave (bytes)
system.iobus.pkt_count_system.ruby.l1_cntrl3.sequencer.mem-master-port::system.ruby.l1_cntrl1.sequencer.pio-slave-port            2                       # Packet count per connected master and slave (bytes)
system.iobus.pkt_count_system.ruby.l1_cntrl3.sequencer.mem-master-port::system.ruby.l1_cntrl2.sequencer.pio-slave-port            2                       # Packet count per connected master and slave (bytes)
system.iobus.pkt_count_system.ruby.l1_cntrl3.sequencer.mem-master-port::system.ruby.l1_cntrl3.sequencer.pio-slave-port          476                       # Packet count per connected master and slave (bytes)
system.iobus.pkt_count_system.ruby.l1_cntrl3.sequencer.mem-master-port::total         1080                       # Packet count per connected master and slave (bytes)
system.iobus.pkt_count::total                    4976                       # Packet count per connected master and slave (bytes)
system.iobus.pkt_size_system.pc.south_bridge.io_apic.int_master::system.ruby.l1_cntrl0.sequencer.pio-slave-port           64                       # Cumulative packet size per connected master and slave (bytes)
system.iobus.pkt_size_system.pc.south_bridge.io_apic.int_master::system.ruby.l1_cntrl1.sequencer.pio-slave-port           60                       # Cumulative packet size per connected master and slave (bytes)
system.iobus.pkt_size_system.pc.south_bridge.io_apic.int_master::system.ruby.l1_cntrl2.sequencer.pio-slave-port           64                       # Cumulative packet size per connected master and slave (bytes)
system.iobus.pkt_size_system.pc.south_bridge.io_apic.int_master::system.ruby.l1_cntrl3.sequencer.pio-slave-port           64                       # Cumulative packet size per connected master and slave (bytes)
system.iobus.pkt_size_system.pc.south_bridge.io_apic.int_master::total          252                       # Cumulative packet size per connected master and slave (bytes)
system.iobus.pkt_size_system.ruby.l1_cntrl0.sequencer.mem-master-port::system.pc.south_bridge.ide.pio          370                       # Cumulative packet size per connected master and slave (bytes)
system.iobus.pkt_size_system.ruby.l1_cntrl0.sequencer.mem-master-port::system.pc.south_bridge.io_apic.pio           16                       # Cumulative packet size per connected master and slave (bytes)
system.iobus.pkt_size_system.ruby.l1_cntrl0.sequencer.mem-master-port::system.pc.com_1.pio            1                       # Cumulative packet size per connected master and slave (bytes)
system.iobus.pkt_size_system.ruby.l1_cntrl0.sequencer.mem-master-port::system.ruby.l1_cntrl0.sequencer.pio-slave-port          968                       # Cumulative packet size per connected master and slave (bytes)
system.iobus.pkt_size_system.ruby.l1_cntrl0.sequencer.mem-master-port::system.ruby.l1_cntrl1.sequencer.pio-slave-port            8                       # Cumulative packet size per connected master and slave (bytes)
system.iobus.pkt_size_system.ruby.l1_cntrl0.sequencer.mem-master-port::system.ruby.l1_cntrl3.sequencer.pio-slave-port            8                       # Cumulative packet size per connected master and slave (bytes)
system.iobus.pkt_size_system.ruby.l1_cntrl0.sequencer.mem-master-port::total         1371                       # Cumulative packet size per connected master and slave (bytes)
system.iobus.pkt_size_system.ruby.l1_cntrl1.sequencer.mem-master-port::system.pc.south_bridge.ide.pio          484                       # Cumulative packet size per connected master and slave (bytes)
system.iobus.pkt_size_system.ruby.l1_cntrl1.sequencer.mem-master-port::system.pc.south_bridge.io_apic.pio           12                       # Cumulative packet size per connected master and slave (bytes)
system.iobus.pkt_size_system.ruby.l1_cntrl1.sequencer.mem-master-port::system.pc.com_1.pio           87                       # Cumulative packet size per connected master and slave (bytes)
system.iobus.pkt_size_system.ruby.l1_cntrl1.sequencer.mem-master-port::system.ruby.l1_cntrl0.sequencer.pio-slave-port            4                       # Cumulative packet size per connected master and slave (bytes)
system.iobus.pkt_size_system.ruby.l1_cntrl1.sequencer.mem-master-port::system.ruby.l1_cntrl1.sequencer.pio-slave-port          940                       # Cumulative packet size per connected master and slave (bytes)
system.iobus.pkt_size_system.ruby.l1_cntrl1.sequencer.mem-master-port::system.ruby.l1_cntrl2.sequencer.pio-slave-port            4                       # Cumulative packet size per connected master and slave (bytes)
system.iobus.pkt_size_system.ruby.l1_cntrl1.sequencer.mem-master-port::total         1531                       # Cumulative packet size per connected master and slave (bytes)
system.iobus.pkt_size_system.ruby.l1_cntrl2.sequencer.mem-master-port::system.pc.south_bridge.ide.pio          350                       # Cumulative packet size per connected master and slave (bytes)
system.iobus.pkt_size_system.ruby.l1_cntrl2.sequencer.mem-master-port::system.pc.south_bridge.io_apic.pio           16                       # Cumulative packet size per connected master and slave (bytes)
system.iobus.pkt_size_system.ruby.l1_cntrl2.sequencer.mem-master-port::system.ruby.l1_cntrl0.sequencer.pio-slave-port            4                       # Cumulative packet size per connected master and slave (bytes)
system.iobus.pkt_size_system.ruby.l1_cntrl2.sequencer.mem-master-port::system.ruby.l1_cntrl1.sequencer.pio-slave-port            4                       # Cumulative packet size per connected master and slave (bytes)
system.iobus.pkt_size_system.ruby.l1_cntrl2.sequencer.mem-master-port::system.ruby.l1_cntrl2.sequencer.pio-slave-port          948                       # Cumulative packet size per connected master and slave (bytes)
system.iobus.pkt_size_system.ruby.l1_cntrl2.sequencer.mem-master-port::system.ruby.l1_cntrl3.sequencer.pio-slave-port            4                       # Cumulative packet size per connected master and slave (bytes)
system.iobus.pkt_size_system.ruby.l1_cntrl2.sequencer.mem-master-port::total         1326                       # Cumulative packet size per connected master and slave (bytes)
system.iobus.pkt_size_system.ruby.l1_cntrl3.sequencer.mem-master-port::system.pc.south_bridge.ide.pio          330                       # Cumulative packet size per connected master and slave (bytes)
system.iobus.pkt_size_system.ruby.l1_cntrl3.sequencer.mem-master-port::system.pc.south_bridge.io_apic.pio           16                       # Cumulative packet size per connected master and slave (bytes)
system.iobus.pkt_size_system.ruby.l1_cntrl3.sequencer.mem-master-port::system.ruby.l1_cntrl0.sequencer.pio-slave-port            8                       # Cumulative packet size per connected master and slave (bytes)
system.iobus.pkt_size_system.ruby.l1_cntrl3.sequencer.mem-master-port::system.ruby.l1_cntrl1.sequencer.pio-slave-port            4                       # Cumulative packet size per connected master and slave (bytes)
system.iobus.pkt_size_system.ruby.l1_cntrl3.sequencer.mem-master-port::system.ruby.l1_cntrl2.sequencer.pio-slave-port            4                       # Cumulative packet size per connected master and slave (bytes)
system.iobus.pkt_size_system.ruby.l1_cntrl3.sequencer.mem-master-port::system.ruby.l1_cntrl3.sequencer.pio-slave-port          952                       # Cumulative packet size per connected master and slave (bytes)
system.iobus.pkt_size_system.ruby.l1_cntrl3.sequencer.mem-master-port::total         1314                       # Cumulative packet size per connected master and slave (bytes)
system.iobus.pkt_size::total                     5794                       # Cumulative packet size per connected master and slave (bytes)
system.iobus.reqLayer2.occupancy              2375500                       # Layer occupancy (ticks)
system.iobus.reqLayer2.utilization                0.0                       # Layer utilization (%)
system.iobus.reqLayer8.occupancy                27496                       # Layer occupancy (ticks)
system.iobus.reqLayer8.utilization                0.0                       # Layer utilization (%)
system.iobus.reqLayer12.occupancy              112000                       # Layer occupancy (ticks)
system.iobus.reqLayer12.utilization               0.0                       # Layer utilization (%)
system.iobus.reqLayer17.occupancy              593484                       # Layer occupancy (ticks)
system.iobus.reqLayer17.utilization               0.0                       # Layer utilization (%)
system.iobus.reqLayer18.occupancy              581985                       # Layer occupancy (ticks)
system.iobus.reqLayer18.utilization               0.0                       # Layer utilization (%)
system.iobus.reqLayer19.occupancy              574982                       # Layer occupancy (ticks)
system.iobus.reqLayer19.utilization               0.0                       # Layer utilization (%)
system.iobus.reqLayer20.occupancy              694262                       # Layer occupancy (ticks)
system.iobus.reqLayer20.utilization               0.0                       # Layer utilization (%)
system.iobus.respLayer0.occupancy              110941                       # Layer occupancy (ticks)
system.iobus.respLayer0.utilization               0.0                       # Layer utilization (%)
system.iobus.respLayer2.occupancy              822000                       # Layer occupancy (ticks)
system.iobus.respLayer2.utilization               0.0                       # Layer utilization (%)
system.iobus.respLayer4.occupancy             1072500                       # Layer occupancy (ticks)
system.iobus.respLayer4.utilization               0.0                       # Layer utilization (%)
system.iobus.respLayer6.occupancy              790500                       # Layer occupancy (ticks)
system.iobus.respLayer6.utilization               0.0                       # Layer utilization (%)
system.iobus.respLayer8.occupancy              772000                       # Layer occupancy (ticks)
system.iobus.respLayer8.utilization               0.0                       # Layer utilization (%)
system.pc.south_bridge.ide.disks.dma_read_full_pages          886                       # Number of full page size DMA reads (not PRD).
system.pc.south_bridge.ide.disks.dma_read_bytes      3629056                       # Number of bytes transfered via DMA reads (not PRD).
system.pc.south_bridge.ide.disks.dma_read_txs          886                       # Number of DMA read transactions (not PRD).
system.pc.south_bridge.ide.disks.dma_write_full_pages           37                       # Number of full page size DMA writes.
system.pc.south_bridge.ide.disks.dma_write_bytes       151552                       # Number of bytes transfered via DMA writes.
system.pc.south_bridge.ide.disks.dma_write_txs           37                       # Number of DMA write transactions.
system.ruby.clk_domain.clock                      500                       # Clock period in ticks
system.ruby.delayHist::bucket_size                  2                       # delay histogram for all message
system.ruby.delayHist::max_bucket                  19                       # delay histogram for all message
system.ruby.delayHist::samples               49343129                       # delay histogram for all message
system.ruby.delayHist::mean                  0.214614                       # delay histogram for all message
system.ruby.delayHist::stdev                 0.900522                       # delay histogram for all message
[...]
system.ruby.DMA_Controller.WriteRequest  |        4992    100.00%    100.00% |           0      0.00%    100.00%
system.ruby.DMA_Controller.WriteRequest::total         4992                      
system.ruby.DMA_Controller.Data          |      113926    100.00%    100.00% |           0      0.00%    100.00%
system.ruby.DMA_Controller.Data::total         113926                      
system.ruby.DMA_Controller.Ack           |        4992    100.00%    100.00% |           0      0.00%    100.00%
system.ruby.DMA_Controller.Ack::total            4992                      
system.ruby.DMA_Controller.READY.ReadRequest |      113926    100.00%    100.00% |           0      0.00%    100.00%
system.ruby.DMA_Controller.READY.ReadRequest::total       113926                      
system.ruby.DMA_Controller.READY.WriteRequest |        4992    100.00%    100.00% |           0      0.00%    100.00%
system.ruby.DMA_Controller.READY.WriteRequest::total         4992                      
system.ruby.DMA_Controller.BUSY_RD.Data  |      113926    100.00%    100.00% |           0      0.00%    100.00%
system.ruby.DMA_Controller.BUSY_RD.Data::total       113926                      
system.ruby.DMA_Controller.BUSY_WR.Ack   |        4992    100.00%    100.00% |           0      0.00%    100.00%
system.ruby.DMA_Controller.BUSY_WR.Ack::total         4992                      
system.ruby.L1Cache_Controller.Load      |      734959      0.58%      0.58% |     1295794      1.02%      1.59% |    37446346     29.37%     30.97% |    88006237     69.03%    100.00%
system.ruby.L1Cache_Controller.Load::total    127483336                      
system.ruby.L1Cache_Controller.Ifetch    |     4095437      0.80%      0.80% |     7036110      1.37%      2.17% |   137424197     26.81%     28.98% |   363978503     71.02%    100.00%
system.ruby.L1Cache_Controller.Ifetch::total    512534247                      
system.ruby.L1Cache_Controller.Store     |      600732      1.42%      1.42% |      956811      2.27%      3.69% |    16245189     38.48%     42.17% |    24413906     57.83%    100.00%
system.ruby.L1Cache_Controller.Store::total     42216638                      
system.ruby.L1Cache_Controller.Inv       |       74261     28.79%     28.79% |       63216     24.51%     53.31% |       61464     23.83%     77.14% |       58961     22.86%    100.00%
system.ruby.L1Cache_Controller.Inv::total       257902                      
system.ruby.L1Cache_Controller.L1_Replacement |      117857      0.78%      0.78% |      149823      0.99%      1.78% |     6775252     44.99%     46.77% |     8016329     53.23%    100.00%
system.ruby.L1Cache_Controller.L1_Replacement::total     15059261                      
system.ruby.L1Cache_Controller.Fwd_GETX  |        1294     20.36%     20.36% |        1824     28.69%     49.05% |        2303     36.23%     85.28% |         936     14.72%    100.00%
system.ruby.L1Cache_Controller.Fwd_GETX::total         6357                      
system.ruby.L1Cache_Controller.Fwd_GETS  |        6734     29.68%     29.68% |        6800     29.97%     59.64% |        5468     24.10%     83.74% |        3690     16.26%    100.00%
system.ruby.L1Cache_Controller.Fwd_GETS::total        22692                      
system.ruby.L1Cache_Controller.Data      |         578     25.59%     25.59% |         650     28.77%     54.36% |         586     25.94%     80.30% |         445     19.70%    100.00%
system.ruby.L1Cache_Controller.Data::total         2259                      
system.ruby.L1Cache_Controller.Data_Exclusive |       46679      0.42%      0.42% |       54073      0.49%      0.92% |     5264275     47.93%     48.85% |     5618296     51.15%    100.00%
system.ruby.L1Cache_Controller.Data_Exclusive::total     10983323                      
system.ruby.L1Cache_Controller.DataS_fromL1 |        4941     21.77%     21.77% |        4840     21.33%     43.10% |        6345     27.96%     71.06% |        6566     28.94%    100.00%
system.ruby.L1Cache_Controller.DataS_fromL1::total        22692                      
system.ruby.L1Cache_Controller.Data_all_Acks |      114233      2.70%      2.70% |      136953      3.24%      5.95% |     1537994     36.41%     42.36% |     2434586     57.64%    100.00%
system.ruby.L1Cache_Controller.Data_all_Acks::total      4223766                      
system.ruby.L1Cache_Controller.Ack       |        8949     42.72%     42.72% |        4006     19.12%     61.85% |        3996     19.08%     80.92% |        3996     19.08%    100.00%
system.ruby.L1Cache_Controller.Ack::total        20947                      
system.ruby.L1Cache_Controller.Ack_all   |        4985     33.16%     33.16% |        3527     23.46%     56.62% |        3346     22.26%     78.87% |        3176     21.13%    100.00%
system.ruby.L1Cache_Controller.Ack_all::total        15034                      
system.ruby.L1Cache_Controller.WB_Ack    |       53420      0.36%      0.36% |       62680      0.43%      0.79% |     6693107     45.41%     46.20% |     7928693     53.80%    100.00%
system.ruby.L1Cache_Controller.WB_Ack::total     14737900                      
system.ruby.L1Cache_Controller.NP.Load   |       47048      0.43%      0.43% |       55423      0.50%      0.93% |     5274751     47.83%     48.76% |     5650989     51.24%    100.00%
system.ruby.L1Cache_Controller.NP.Load::total     11028211                      
system.ruby.L1Cache_Controller.NP.Ifetch |       49937     21.62%     21.62% |       71306     30.87%     52.49% |       61875     26.79%     79.27% |       47887     20.73%    100.00%
system.ruby.L1Cache_Controller.NP.Ifetch::total       231005                      
system.ruby.L1Cache_Controller.NP.Store  |       20872      0.55%      0.55% |       23462      0.62%      1.17% |     1438626     37.84%     39.01% |     2318788     60.99%    100.00%
system.ruby.L1Cache_Controller.NP.Store::total      3801748                      
system.ruby.L1Cache_Controller.NP.Inv    |       15047     29.64%     29.64% |        8012     15.78%     45.42% |       18569     36.58%     82.00% |        9140     18.00%    100.00%
system.ruby.L1Cache_Controller.NP.Inv::total        50768                      
system.ruby.L1Cache_Controller.I.Load    |       10362     29.16%     29.16% |       11872     33.41%     62.58% |        7522     21.17%     83.75% |        5775     16.25%    100.00%
system.ruby.L1Cache_Controller.I.Load::total        35531                      
system.ruby.L1Cache_Controller.I.Ifetch  |       29580     26.79%     26.79% |       26219     23.74%     50.53% |       21986     19.91%     70.44% |       32640     29.56%    100.00%
system.ruby.L1Cache_Controller.I.Ifetch::total       110425                      
system.ruby.L1Cache_Controller.I.Store   |        8632     34.36%     34.36% |        8233     32.78%     67.14% |        4440     17.68%     84.82% |        3814     15.18%    100.00%
system.ruby.L1Cache_Controller.I.Store::total        25119                      
system.ruby.L1Cache_Controller.I.L1_Replacement |       11695     28.24%     28.24% |       10222     24.69%     52.93% |       10768     26.01%     78.94% |        8722     21.06%    100.00%
system.ruby.L1Cache_Controller.I.L1_Replacement::total        41407                      
system.ruby.L1Cache_Controller.S.Load    |      111620      4.27%      4.27% |      171045      6.55%     10.82% |      431810     16.53%     27.34% |     1898576     72.66%    100.00%
system.ruby.L1Cache_Controller.S.Load::total      2613051                      
system.ruby.L1Cache_Controller.S.Ifetch  |     4015920      0.78%      0.78% |     6938583      1.35%      2.14% |   137340336     26.81%     28.95% |   363897976     71.05%    100.00%
system.ruby.L1Cache_Controller.S.Ifetch::total    512192815                      
system.ruby.L1Cache_Controller.S.Store   |        4407     34.49%     34.49% |        2878     22.53%     57.02% |        2760     21.60%     78.62% |        2731     21.38%    100.00%
system.ruby.L1Cache_Controller.S.Store::total        12776                      
system.ruby.L1Cache_Controller.S.Inv     |       39850     26.25%     26.25% |       37978     25.01%     51.26% |       32946     21.70%     72.96% |       41049     27.04%    100.00%
system.ruby.L1Cache_Controller.S.Inv::total       151823                      
system.ruby.L1Cache_Controller.S.L1_Replacement |       52742     18.84%     18.84% |       76921     27.48%     46.32% |       71377     25.50%     71.81% |       78914     28.19%    100.00%
system.ruby.L1Cache_Controller.S.L1_Replacement::total       279954                      
system.ruby.L1Cache_Controller.E.Load    |      139230      0.16%      0.16% |      254804      0.29%      0.44% |    22519036     25.38%     25.82% |    65827037     74.18%    100.00%
system.ruby.L1Cache_Controller.E.Load::total     88740107                      
system.ruby.L1Cache_Controller.E.Store   |       18253      1.36%      1.36% |       18873      1.41%      2.77% |     1065651     79.50%     82.27% |      237646     17.73%    100.00%
system.ruby.L1Cache_Controller.E.Store::total      1340423                      
system.ruby.L1Cache_Controller.E.Inv     |        6262     33.75%     33.75% |        5555     29.94%     63.68% |        3603     19.42%     83.10% |        3136     16.90%    100.00%
system.ruby.L1Cache_Controller.E.Inv::total        18556                      
system.ruby.L1Cache_Controller.E.L1_Replacement |       19035      0.20%      0.20% |       24510      0.26%      0.45% |     4191477     43.62%     44.07% |     5374381     55.93%    100.00%
system.ruby.L1Cache_Controller.E.L1_Replacement::total      9609403                      
system.ruby.L1Cache_Controller.E.Fwd_GETX |         271      9.22%      9.22% |        1088     37.01%     46.22% |        1431     48.67%     94.90% |         150      5.10%    100.00%
system.ruby.L1Cache_Controller.E.Fwd_GETX::total         2940                      
system.ruby.L1Cache_Controller.E.Fwd_GETS |        2589     22.30%     22.30% |        4075     35.11%     57.41% |        2815     24.25%     81.66% |        2129     18.34%    100.00%
system.ruby.L1Cache_Controller.E.Fwd_GETS::total        11608                      
system.ruby.L1Cache_Controller.M.Load    |      426699      1.70%      1.70% |      802650      3.20%      4.90% |     9213227     36.76%     41.66% |    14623860     58.34%    100.00%
system.ruby.L1Cache_Controller.M.Load::total     25066436                      
system.ruby.L1Cache_Controller.M.Store   |      548568      1.48%      1.48% |      903365      2.44%      3.92% |    13733712     37.08%     41.00% |    21850927     59.00%    100.00%
system.ruby.L1Cache_Controller.M.Store::total     37036572                      
system.ruby.L1Cache_Controller.M.Inv     |       13102     35.65%     35.65% |       11670     31.75%     67.40% |        6346     17.27%     84.67% |        5636     15.33%    100.00%
system.ruby.L1Cache_Controller.M.Inv::total        36754                      
system.ruby.L1Cache_Controller.M.L1_Replacement |       34385      0.67%      0.67% |       38170      0.74%      1.41% |     2501630     48.78%     50.19% |     2554312     49.81%    100.00%
system.ruby.L1Cache_Controller.M.L1_Replacement::total      5128497                      
system.ruby.L1Cache_Controller.M.Fwd_GETX |        1023     29.94%     29.94% |         736     21.54%     51.48% |         872     25.52%     77.00% |         786     23.00%    100.00%
system.ruby.L1Cache_Controller.M.Fwd_GETX::total         3417                      
system.ruby.L1Cache_Controller.M.Fwd_GETS |        4145     37.40%     37.40% |        2725     24.58%     61.98% |        2653     23.94%     85.92% |        1561     14.08%    100.00%
system.ruby.L1Cache_Controller.M.Fwd_GETS::total        11084                      
system.ruby.L1Cache_Controller.IS.Data_Exclusive |       46679      0.42%      0.42% |       54073      0.49%      0.92% |     5264275     47.93%     48.85% |     5618296     51.15%    100.00%
system.ruby.L1Cache_Controller.IS.Data_Exclusive::total     10983323                      
system.ruby.L1Cache_Controller.IS.DataS_fromL1 |        4941     21.77%     21.77% |        4840     21.33%     43.10% |        6345     27.96%     71.06% |        6566     28.94%    100.00%
system.ruby.L1Cache_Controller.IS.DataS_fromL1::total        22692                      
system.ruby.L1Cache_Controller.IS.Data_all_Acks |       85307     21.37%     21.37% |      105907     26.53%     47.90% |       95514     23.93%     71.83% |      112429     28.17%    100.00%
system.ruby.L1Cache_Controller.IS.Data_all_Acks::total       399157                      
system.ruby.L1Cache_Controller.IM.Data   |         578     25.59%     25.59% |         650     28.77%     54.36% |         586     25.94%     80.30% |         445     19.70%    100.00%
system.ruby.L1Cache_Controller.IM.Data::total         2259                      
system.ruby.L1Cache_Controller.IM.Data_all_Acks |       28926      0.76%      0.76% |       31046      0.81%      1.57% |     1442480     37.72%     39.28% |     2322157     60.72%    100.00%
system.ruby.L1Cache_Controller.IM.Data_all_Acks::total      3824609                      
system.ruby.L1Cache_Controller.SM.Inv    |           0      0.00%      0.00% |           1    100.00%    100.00% |           0      0.00%    100.00% |           0      0.00%    100.00%
system.ruby.L1Cache_Controller.SM.Inv::total            1                      
system.ruby.L1Cache_Controller.SM.Ack    |        8949     42.72%     42.72% |        4006     19.12%     61.85% |        3996     19.08%     80.92% |        3996     19.08%    100.00%
system.ruby.L1Cache_Controller.SM.Ack::total        20947                      
system.ruby.L1Cache_Controller.SM.Ack_all |        4985     33.16%     33.16% |        3527     23.46%     56.62% |        3346     22.26%     78.87% |        3176     21.13%    100.00%
system.ruby.L1Cache_Controller.SM.Ack_all::total        15034                      
system.ruby.L1Cache_Controller.M_I.Ifetch |           0      0.00%      0.00% |           2    100.00%    100.00% |           0      0.00%    100.00% |           0      0.00%    100.00%
system.ruby.L1Cache_Controller.M_I.Ifetch::total            2                      
system.ruby.L1Cache_Controller.M_I.WB_Ack |       53420      0.36%      0.36% |       62680      0.43%      0.79% |     6693107     45.41%     46.20% |     7928693     53.80%    100.00%
system.ruby.L1Cache_Controller.M_I.WB_Ack::total     14737900                      
system.ruby.L2Cache_Controller.L1_GET_INSTR       341432      0.00%      0.00%
system.ruby.L2Cache_Controller.L1_GETS       11063794      0.00%      0.00%
system.ruby.L2Cache_Controller.L1_GETX        3826873      0.00%      0.00%
system.ruby.L2Cache_Controller.L1_UPGRADE        12776      0.00%      0.00%
system.ruby.L2Cache_Controller.L1_PUTX       14737900      0.00%      0.00%
system.ruby.L2Cache_Controller.L2_Replacement      4108727      0.00%      0.00%
system.ruby.L2Cache_Controller.L2_Replacement_clean      4573245      0.00%      0.00%
system.ruby.L2Cache_Controller.Mem_Data       8696975      0.00%      0.00%
system.ruby.L2Cache_Controller.Mem_Ack        8682503      0.00%      0.00%
system.ruby.L2Cache_Controller.WB_Data          47838      0.00%      0.00%
system.ruby.L2Cache_Controller.WB_Data_clean        11608      0.00%      0.00%
system.ruby.L2Cache_Controller.Ack              92174      0.00%      0.00%
system.ruby.L2Cache_Controller.Ack_all         105768      0.00%      0.00%
system.ruby.L2Cache_Controller.Unblock          22692      0.00%      0.00%
system.ruby.L2Cache_Controller.Exclusive_Unblock     14822966      0.00%      0.00%
system.ruby.L2Cache_Controller.MEM_Inv           1062      0.00%      0.00%
system.ruby.L2Cache_Controller.NP.L1_GET_INSTR        82839      0.00%      0.00%
system.ruby.L2Cache_Controller.NP.L1_GETS      5480201      0.00%      0.00%
system.ruby.L2Cache_Controller.NP.L1_GETX      3133935      0.00%      0.00%
system.ruby.L2Cache_Controller.SS.L1_GET_INSTR       258562      0.00%      0.00%
system.ruby.L2Cache_Controller.SS.L1_GETS        57543      0.00%      0.00%
system.ruby.L2Cache_Controller.SS.L1_GETX         2259      0.00%      0.00%
system.ruby.L2Cache_Controller.SS.L1_UPGRADE        12775      0.00%      0.00%
system.ruby.L2Cache_Controller.SS.L2_Replacement         2816      0.00%      0.00%
system.ruby.L2Cache_Controller.SS.L2_Replacement_clean        84396      0.00%      0.00%
system.ruby.L2Cache_Controller.M.L1_GET_INSTR           27      0.00%      0.00%
system.ruby.L2Cache_Controller.M.L1_GETS      5503214      0.00%      0.00%
system.ruby.L2Cache_Controller.M.L1_GETX       684317      0.00%      0.00%
system.ruby.L2Cache_Controller.M.L2_Replacement      4101181      0.00%      0.00%
system.ruby.L2Cache_Controller.M.L2_Replacement_clean      4438515      0.00%      0.00%
system.ruby.L2Cache_Controller.M.MEM_Inv          285      0.00%      0.00%
system.ruby.L2Cache_Controller.MT.L1_GETS        22692      0.00%      0.00%
system.ruby.L2Cache_Controller.MT.L1_GETX         6357      0.00%      0.00%
system.ruby.L2Cache_Controller.MT.L1_PUTX     14737900      0.00%      0.00%
system.ruby.L2Cache_Controller.MT.L2_Replacement         4730      0.00%      0.00%
system.ruby.L2Cache_Controller.MT.L2_Replacement_clean        50334      0.00%      0.00%
system.ruby.L2Cache_Controller.MT.MEM_Inv          246      0.00%      0.00%
system.ruby.L2Cache_Controller.M_I.L1_GET_INSTR            2      0.00%      0.00%
system.ruby.L2Cache_Controller.M_I.L1_GETS            2      0.00%      0.00%
system.ruby.L2Cache_Controller.M_I.Mem_Ack      8682503      0.00%      0.00%
system.ruby.L2Cache_Controller.M_I.MEM_Inv          285      0.00%      0.00%
system.ruby.L2Cache_Controller.MT_I.WB_Data         3650      0.00%      0.00%
system.ruby.L2Cache_Controller.MT_I.Ack_all         1326      0.00%      0.00%
system.ruby.L2Cache_Controller.MT_I.MEM_Inv          246      0.00%      0.00%
system.ruby.L2Cache_Controller.MCT_I.WB_Data        33104      0.00%      0.00%
system.ruby.L2Cache_Controller.MCT_I.Ack_all        17230      0.00%      0.00%
system.ruby.L2Cache_Controller.I_I.Ack          89059      0.00%      0.00%
system.ruby.L2Cache_Controller.I_I.Ack_all        84396      0.00%      0.00%
system.ruby.L2Cache_Controller.S_I.Ack           3115      0.00%      0.00%
system.ruby.L2Cache_Controller.S_I.Ack_all         2816      0.00%      0.00%
system.ruby.L2Cache_Controller.ISS.L1_GETS           92      0.00%      0.00%
system.ruby.L2Cache_Controller.ISS.Mem_Data      5480109      0.00%      0.00%
system.ruby.L2Cache_Controller.IS.L1_GET_INSTR            2      0.00%      0.00%
system.ruby.L2Cache_Controller.IS.Mem_Data        82931      0.00%      0.00%
system.ruby.L2Cache_Controller.IM.Mem_Data      3133935      0.00%      0.00%
system.ruby.L2Cache_Controller.SS_MB.L1_GETS           30      0.00%      0.00%
system.ruby.L2Cache_Controller.SS_MB.L1_UPGRADE            1      0.00%      0.00%
system.ruby.L2Cache_Controller.SS_MB.Exclusive_Unblock        15034      0.00%      0.00%
system.ruby.L2Cache_Controller.MT_MB.L1_GETS           16      0.00%      0.00%
system.ruby.L2Cache_Controller.MT_MB.L1_GETX            3      0.00%      0.00%
system.ruby.L2Cache_Controller.MT_MB.Exclusive_Unblock     14807932      0.00%      0.00%
system.ruby.L2Cache_Controller.MT_IIB.L1_GETS            3      0.00%      0.00%
system.ruby.L2Cache_Controller.MT_IIB.L1_GETX            2      0.00%      0.00%
system.ruby.L2Cache_Controller.MT_IIB.WB_Data        11084      0.00%      0.00%
system.ruby.L2Cache_Controller.MT_IIB.WB_Data_clean        11608      0.00%      0.00%
system.ruby.L2Cache_Controller.MT_SB.L1_GETS            1      0.00%      0.00%
system.ruby.L2Cache_Controller.MT_SB.Unblock        22692      0.00%      0.00%

---------- End Simulation Statistics   ----------
