
---------- Begin Simulation Statistics ----------
sim_seconds                                  1.989648                       # Number of seconds simulated
sim_ticks                                1989647965000                       # Number of ticks simulated
final_tick                               54218609683501                       # Number of ticks from beginning of simulation (restored from checkpoints and never reset)
sim_freq                                 1000000000000                       # Frequency of simulated ticks
host_inst_rate                                  97965                       # Simulator instruction rate (inst/s)
host_op_rate                                   146031                       # Simulator op (including micro ops) rate (op/s)
host_tick_rate                              268651863                       # Simulator tick rate (ticks/s)
host_mem_usage                                1820980                       # Number of bytes of host memory used
host_seconds                                  7406.05                       # Real time elapsed on the host
sim_insts                                   725536211                       # Number of instructions simulated
sim_ops                                    1081510449                       # Number of ops (including micro ops) simulated
system.voltage_domain.voltage                       1                       # Voltage in Volts
system.clk_domain.clock                          1000                       # Clock period in ticks
system.mem_ctrls.bytes_read::ruby.dir_cntrl0    379125888                       # Number of bytes read from this memory
system.mem_ctrls.bytes_read::total          379125888                       # Number of bytes read from this memory
system.mem_ctrls.bytes_written::ruby.dir_cntrl0    173447360                       # Number of bytes written to this memory
system.mem_ctrls.bytes_written::total       173447360                       # Number of bytes written to this memory
system.mem_ctrls.num_reads::ruby.dir_cntrl0      5923842                       # Number of read requests responded to by this memory
system.mem_ctrls.num_reads::total             5923842                       # Number of read requests responded to by this memory
system.mem_ctrls.num_writes::ruby.dir_cntrl0      2710115                       # Number of write requests responded to by this memory
system.mem_ctrls.num_writes::total            2710115                       # Number of write requests responded to by this memory
system.mem_ctrls.bw_read::ruby.dir_cntrl0    190549230                       # Total read bandwidth from this memory (bytes/s)
system.mem_ctrls.bw_read::total             190549230                       # Total read bandwidth from this memory (bytes/s)
system.mem_ctrls.bw_write::ruby.dir_cntrl0     87174899                       # Write bandwidth from this memory (bytes/s)
system.mem_ctrls.bw_write::total             87174899                       # Write bandwidth from this memory (bytes/s)
system.mem_ctrls.bw_total::ruby.dir_cntrl0    277724129                       # Total bandwidth to/from this memory (bytes/s)
system.mem_ctrls.bw_total::total            277724129                       # Total bandwidth to/from this memory (bytes/s)
system.mem_ctrls.readReqs                     5923842                       # Number of read requests accepted
system.mem_ctrls.writeReqs                    2710115                       # Number of write requests accepted
system.mem_ctrls.readBursts                   5923842                       # Number of DRAM read bursts, including those serviced by the write queue
system.mem_ctrls.writeBursts                  2710115                       # Number of DRAM write bursts, including those merged in the write queue
system.mem_ctrls.bytesReadDRAM              378919104                       # Total number of bytes read from DRAM
system.mem_ctrls.bytesReadWrQ                  206784                       # Total number of bytes read from write queue
system.mem_ctrls.bytesWritten               173447424                       # Total number of bytes written to DRAM
system.mem_ctrls.bytesReadSys               379125888                       # Total read bytes from the system interface side
system.mem_ctrls.bytesWrittenSys            173447360                       # Total written bytes from the system interface side
system.mem_ctrls.servicedByWrQ                   3231                       # Number of DRAM read bursts serviced by the write queue
system.mem_ctrls.mergedWrBursts                     2                       # Number of DRAM write bursts merged with an existing one
system.mem_ctrls.neitherReadNorWriteReqs            0                       # Number of requests that are neither read nor write
system.mem_ctrls.perBankRdBursts::0            375462                       # Per bank write bursts
system.mem_ctrls.perBankRdBursts::1            379075                       # Per bank write bursts
system.mem_ctrls.perBankRdBursts::2            367790                       # Per bank write bursts
system.mem_ctrls.perBankRdBursts::3            367131                       # Per bank write bursts
system.mem_ctrls.perBankRdBursts::4            368697                       # Per bank write bursts
system.mem_ctrls.perBankRdBursts::5            369632                       # Per bank write bursts
system.mem_ctrls.perBankRdBursts::6            378199                       # Per bank write bursts
system.mem_ctrls.perBankRdBursts::7            367182                       # Per bank write bursts
system.mem_ctrls.perBankRdBursts::8            370373                       # Per bank write bursts
system.mem_ctrls.perBankRdBursts::9            369322                       # Per bank write bursts
system.mem_ctrls.perBankRdBursts::10           368441                       # Per bank write bursts
system.mem_ctrls.perBankRdBursts::11           364965                       # Per bank write bursts
system.mem_ctrls.perBankRdBursts::12           367405                       # Per bank write bursts
system.mem_ctrls.perBankRdBursts::13           367017                       # Per bank write bursts
system.mem_ctrls.perBankRdBursts::14           369429                       # Per bank write bursts
system.mem_ctrls.perBankRdBursts::15           370491                       # Per bank write bursts
system.mem_ctrls.perBankWrBursts::0            171409                       # Per bank write bursts
system.mem_ctrls.perBankWrBursts::1            179940                       # Per bank write bursts
system.mem_ctrls.perBankWrBursts::2            169507                       # Per bank write bursts
system.mem_ctrls.perBankWrBursts::3            167416                       # Per bank write bursts
system.mem_ctrls.perBankWrBursts::4            166721                       # Per bank write bursts
system.mem_ctrls.perBankWrBursts::5            168628                       # Per bank write bursts
system.mem_ctrls.perBankWrBursts::6            174787                       # Per bank write bursts
system.mem_ctrls.perBankWrBursts::7            167678                       # Per bank write bursts
system.mem_ctrls.perBankWrBursts::8            170770                       # Per bank write bursts
system.mem_ctrls.perBankWrBursts::9            168071                       # Per bank write bursts
system.mem_ctrls.perBankWrBursts::10           168222                       # Per bank write bursts
system.mem_ctrls.perBankWrBursts::11           166311                       # Per bank write bursts
system.mem_ctrls.perBankWrBursts::12           168421                       # Per bank write bursts
system.mem_ctrls.perBankWrBursts::13           166609                       # Per bank write bursts
system.mem_ctrls.perBankWrBursts::14           168809                       # Per bank write bursts
system.mem_ctrls.perBankWrBursts::15           166817                       # Per bank write bursts
system.mem_ctrls.numRdRetry                         0                       # Number of times read queue was full causing retry
system.mem_ctrls.numWrRetry                         0                       # Number of times write queue was full causing retry
system.mem_ctrls.totGap                  1989647888000                       # Total gap between requests
system.mem_ctrls.readPktSize::0                     0                       # Read request sizes (log2)
system.mem_ctrls.readPktSize::1                     0                       # Read request sizes (log2)
system.mem_ctrls.readPktSize::2                     0                       # Read request sizes (log2)
system.mem_ctrls.readPktSize::3                     0                       # Read request sizes (log2)
system.mem_ctrls.readPktSize::4                     0                       # Read request sizes (log2)
system.mem_ctrls.readPktSize::5                     0                       # Read request sizes (log2)
system.mem_ctrls.readPktSize::6               5923842                       # Read request sizes (log2)
system.mem_ctrls.writePktSize::0                    0                       # Write request sizes (log2)
system.mem_ctrls.writePktSize::1                    0                       # Write request sizes (log2)
system.mem_ctrls.writePktSize::2                    0                       # Write request sizes (log2)
system.mem_ctrls.writePktSize::3                    0                       # Write request sizes (log2)
system.mem_ctrls.writePktSize::4                    0                       # Write request sizes (log2)
system.mem_ctrls.writePktSize::5                    0                       # Write request sizes (log2)
system.mem_ctrls.writePktSize::6              2710115                       # Write request sizes (log2)
system.mem_ctrls.rdQLenPdf::0                 5903586                       # What read queue length does an incoming req see
system.mem_ctrls.rdQLenPdf::1                   17022                       # What read queue length does an incoming req see
system.mem_ctrls.rdQLenPdf::2                       3                       # What read queue length does an incoming req see
system.mem_ctrls.rdQLenPdf::3                       0                       # What read queue length does an incoming req see
system.mem_ctrls.rdQLenPdf::4                       0                       # What read queue length does an incoming req see
system.mem_ctrls.rdQLenPdf::5                       0                       # What read queue length does an incoming req see
system.mem_ctrls.rdQLenPdf::6                       0                       # What read queue length does an incoming req see
system.mem_ctrls.rdQLenPdf::7                       0                       # What read queue length does an incoming req see
system.mem_ctrls.rdQLenPdf::8                       0                       # What read queue length does an incoming req see
system.mem_ctrls.rdQLenPdf::9                       0                       # What read queue length does an incoming req see
system.mem_ctrls.rdQLenPdf::10                      0                       # What read queue length does an incoming req see
system.mem_ctrls.rdQLenPdf::11                      0                       # What read queue length does an incoming req see
system.mem_ctrls.rdQLenPdf::12                      0                       # What read queue length does an incoming req see
system.mem_ctrls.rdQLenPdf::13                      0                       # What read queue length does an incoming req see
system.mem_ctrls.rdQLenPdf::14                      0                       # What read queue length does an incoming req see
system.mem_ctrls.rdQLenPdf::15                      0                       # What read queue length does an incoming req see
system.mem_ctrls.rdQLenPdf::16                      0                       # What read queue length does an incoming req see
system.mem_ctrls.rdQLenPdf::17                      0                       # What read queue length does an incoming req see
system.mem_ctrls.rdQLenPdf::18                      0                       # What read queue length does an incoming req see
system.mem_ctrls.rdQLenPdf::19                      0                       # What read queue length does an incoming req see
system.mem_ctrls.rdQLenPdf::20                      0                       # What read queue length does an incoming req see
system.mem_ctrls.rdQLenPdf::21                      0                       # What read queue length does an incoming req see
system.mem_ctrls.rdQLenPdf::22                      0                       # What read queue length does an incoming req see
system.mem_ctrls.rdQLenPdf::23                      0                       # What read queue length does an incoming req see
system.mem_ctrls.rdQLenPdf::24                      0                       # What read queue length does an incoming req see
system.mem_ctrls.rdQLenPdf::25                      0                       # What read queue length does an incoming req see
system.mem_ctrls.rdQLenPdf::26                      0                       # What read queue length does an incoming req see
system.mem_ctrls.rdQLenPdf::27                      0                       # What read queue length does an incoming req see
system.mem_ctrls.rdQLenPdf::28                      0                       # What read queue length does an incoming req see
system.mem_ctrls.rdQLenPdf::29                      0                       # What read queue length does an incoming req see
system.mem_ctrls.rdQLenPdf::30                      0                       # What read queue length does an incoming req see
system.mem_ctrls.rdQLenPdf::31                      0                       # What read queue length does an incoming req see
system.mem_ctrls.wrQLenPdf::0                       0                       # What write queue length does an incoming req see
system.mem_ctrls.wrQLenPdf::1                       0                       # What write queue length does an incoming req see
system.mem_ctrls.wrQLenPdf::2                       0                       # What write queue length does an incoming req see
system.mem_ctrls.wrQLenPdf::3                       0                       # What write queue length does an incoming req see
system.mem_ctrls.wrQLenPdf::4                       0                       # What write queue length does an incoming req see
system.mem_ctrls.wrQLenPdf::5                       0                       # What write queue length does an incoming req see
system.mem_ctrls.wrQLenPdf::6                       0                       # What write queue length does an incoming req see
system.mem_ctrls.wrQLenPdf::7                       0                       # What write queue length does an incoming req see
system.mem_ctrls.wrQLenPdf::8                       0                       # What write queue length does an incoming req see
system.mem_ctrls.wrQLenPdf::9                       0                       # What write queue length does an incoming req see
system.mem_ctrls.wrQLenPdf::10                      0                       # What write queue length does an incoming req see
system.mem_ctrls.wrQLenPdf::11                      0                       # What write queue length does an incoming req see
system.mem_ctrls.wrQLenPdf::12                      0                       # What write queue length does an incoming req see
system.mem_ctrls.wrQLenPdf::13                      0                       # What write queue length does an incoming req see
system.mem_ctrls.wrQLenPdf::14                      0                       # What write queue length does an incoming req see
system.mem_ctrls.wrQLenPdf::15                   2420                       # What write queue length does an incoming req see
system.mem_ctrls.wrQLenPdf::16                   2808                       # What write queue length does an incoming req see
system.mem_ctrls.wrQLenPdf::17                 166989                       # What write queue length does an incoming req see
system.mem_ctrls.wrQLenPdf::18                 169247                       # What write queue length does an incoming req see
system.mem_ctrls.wrQLenPdf::19                 169262                       # What write queue length does an incoming req see
system.mem_ctrls.wrQLenPdf::20                 169451                       # What write queue length does an incoming req see
system.mem_ctrls.wrQLenPdf::21                 169252                       # What write queue length does an incoming req see
system.mem_ctrls.wrQLenPdf::22                 169222                       # What write queue length does an incoming req see
system.mem_ctrls.wrQLenPdf::23                 169183                       # What write queue length does an incoming req see
system.mem_ctrls.wrQLenPdf::24                 169191                       # What write queue length does an incoming req see
system.mem_ctrls.wrQLenPdf::25                 169174                       # What write queue length does an incoming req see
system.mem_ctrls.wrQLenPdf::26                 169162                       # What write queue length does an incoming req see
system.mem_ctrls.wrQLenPdf::27                 169141                       # What write queue length does an incoming req see
system.mem_ctrls.wrQLenPdf::28                 169159                       # What write queue length does an incoming req see
system.mem_ctrls.wrQLenPdf::29                 169141                       # What write queue length does an incoming req see
system.mem_ctrls.wrQLenPdf::30                 169120                       # What write queue length does an incoming req see
system.mem_ctrls.wrQLenPdf::31                 169110                       # What write queue length does an incoming req see
system.mem_ctrls.wrQLenPdf::32                 169061                       # What write queue length does an incoming req see
system.mem_ctrls.wrQLenPdf::33                     20                       # What write queue length does an incoming req see
system.mem_ctrls.wrQLenPdf::34                      0                       # What write queue length does an incoming req see
system.mem_ctrls.wrQLenPdf::35                      0                       # What write queue length does an incoming req see
system.mem_ctrls.wrQLenPdf::36                      0                       # What write queue length does an incoming req see
system.mem_ctrls.wrQLenPdf::37                      0                       # What write queue length does an incoming req see
system.mem_ctrls.wrQLenPdf::38                      0                       # What write queue length does an incoming req see
system.mem_ctrls.wrQLenPdf::39                      0                       # What write queue length does an incoming req see
system.mem_ctrls.wrQLenPdf::40                      0                       # What write queue length does an incoming req see
system.mem_ctrls.wrQLenPdf::41                      0                       # What write queue length does an incoming req see
system.mem_ctrls.wrQLenPdf::42                      0                       # What write queue length does an incoming req see
system.mem_ctrls.wrQLenPdf::43                      0                       # What write queue length does an incoming req see
system.mem_ctrls.wrQLenPdf::44                      0                       # What write queue length does an incoming req see
system.mem_ctrls.wrQLenPdf::45                      0                       # What write queue length does an incoming req see
system.mem_ctrls.wrQLenPdf::46                      0                       # What write queue length does an incoming req see
system.mem_ctrls.wrQLenPdf::47                      0                       # What write queue length does an incoming req see
system.mem_ctrls.wrQLenPdf::48                      0                       # What write queue length does an incoming req see
system.mem_ctrls.wrQLenPdf::49                      0                       # What write queue length does an incoming req see
system.mem_ctrls.wrQLenPdf::50                      0                       # What write queue length does an incoming req see
system.mem_ctrls.wrQLenPdf::51                      0                       # What write queue length does an incoming req see
system.mem_ctrls.wrQLenPdf::52                      0                       # What write queue length does an incoming req see
system.mem_ctrls.wrQLenPdf::53                      0                       # What write queue length does an incoming req see
system.mem_ctrls.wrQLenPdf::54                      0                       # What write queue length does an incoming req see
system.mem_ctrls.wrQLenPdf::55                      0                       # What write queue length does an incoming req see
system.mem_ctrls.wrQLenPdf::56                      0                       # What write queue length does an incoming req see
system.mem_ctrls.wrQLenPdf::57                      0                       # What write queue length does an incoming req see
system.mem_ctrls.wrQLenPdf::58                      0                       # What write queue length does an incoming req see
system.mem_ctrls.wrQLenPdf::59                      0                       # What write queue length does an incoming req see
system.mem_ctrls.wrQLenPdf::60                      0                       # What write queue length does an incoming req see
system.mem_ctrls.wrQLenPdf::61                      0                       # What write queue length does an incoming req see
system.mem_ctrls.wrQLenPdf::62                      0                       # What write queue length does an incoming req see
system.mem_ctrls.wrQLenPdf::63                      0                       # What write queue length does an incoming req see
system.mem_ctrls.bytesPerActivate::samples      3742345                       # Bytes accessed per row activation
system.mem_ctrls.bytesPerActivate::mean    147.599074                       # Bytes accessed per row activation
system.mem_ctrls.bytesPerActivate::gmean    90.615590                       # Bytes accessed per row activation
system.mem_ctrls.bytesPerActivate::stdev   225.291505                       # Bytes accessed per row activation
system.mem_ctrls.bytesPerActivate::0-127      2987850     79.84%     79.84% # Bytes accessed per row activation
system.mem_ctrls.bytesPerActivate::128-255       264048      7.06%     86.89% # Bytes accessed per row activation
system.mem_ctrls.bytesPerActivate::256-383       103997      2.78%     89.67% # Bytes accessed per row activation
system.mem_ctrls.bytesPerActivate::384-511        77264      2.06%     91.74% # Bytes accessed per row activation
system.mem_ctrls.bytesPerActivate::512-639        57801      1.54%     93.28% # Bytes accessed per row activation
system.mem_ctrls.bytesPerActivate::640-767        47203      1.26%     94.54% # Bytes accessed per row activation
system.mem_ctrls.bytesPerActivate::768-895        38713      1.03%     95.58% # Bytes accessed per row activation
system.mem_ctrls.bytesPerActivate::896-1023        26815      0.72%     96.29% # Bytes accessed per row activation
system.mem_ctrls.bytesPerActivate::1024-1151       138654      3.71%    100.00% # Bytes accessed per row activation
system.mem_ctrls.bytesPerActivate::total      3742345                       # Bytes accessed per row activation
system.mem_ctrls.rdPerTurnAround::samples       169045                       # Reads before turning the bus around for writes
system.mem_ctrls.rdPerTurnAround::mean      35.114248                       # Reads before turning the bus around for writes
system.mem_ctrls.rdPerTurnAround::gmean     24.598596                       # Reads before turning the bus around for writes
system.mem_ctrls.rdPerTurnAround::stdev    231.818546                       # Reads before turning the bus around for writes
system.mem_ctrls.rdPerTurnAround::0-511        168574     99.72%     99.72% # Reads before turning the bus around for writes
system.mem_ctrls.rdPerTurnAround::512-1023          124      0.07%     99.79% # Reads before turning the bus around for writes
system.mem_ctrls.rdPerTurnAround::1024-1535           50      0.03%     99.82% # Reads before turning the bus around for writes
system.mem_ctrls.rdPerTurnAround::1536-2047           39      0.02%     99.85% # Reads before turning the bus around for writes
system.mem_ctrls.rdPerTurnAround::2048-2559           39      0.02%     99.87% # Reads before turning the bus around for writes
system.mem_ctrls.rdPerTurnAround::2560-3071           30      0.02%     99.89% # Reads before turning the bus around for writes
system.mem_ctrls.rdPerTurnAround::3072-3583           38      0.02%     99.91% # Reads before turning the bus around for writes
system.mem_ctrls.rdPerTurnAround::3584-4095           35      0.02%     99.93% # Reads before turning the bus around for writes
system.mem_ctrls.rdPerTurnAround::4096-4607           19      0.01%     99.94% # Reads before turning the bus around for writes
system.mem_ctrls.rdPerTurnAround::4608-5119           15      0.01%     99.95% # Reads before turning the bus around for writes
system.mem_ctrls.rdPerTurnAround::5120-5631           10      0.01%     99.96% # Reads before turning the bus around for writes
system.mem_ctrls.rdPerTurnAround::5632-6143            5      0.00%     99.96% # Reads before turning the bus around for writes
system.mem_ctrls.rdPerTurnAround::6144-6655            7      0.00%     99.96% # Reads before turning the bus around for writes
system.mem_ctrls.rdPerTurnAround::6656-7167            6      0.00%     99.97% # Reads before turning the bus around for writes
system.mem_ctrls.rdPerTurnAround::7168-7679           14      0.01%     99.98% # Reads before turning the bus around for writes
system.mem_ctrls.rdPerTurnAround::7680-8191            1      0.00%     99.98% # Reads before turning the bus around for writes
system.mem_ctrls.rdPerTurnAround::8192-8703            4      0.00%     99.98% # Reads before turning the bus around for writes
system.mem_ctrls.rdPerTurnAround::8704-9215            2      0.00%     99.98% # Reads before turning the bus around for writes
system.mem_ctrls.rdPerTurnAround::9216-9727            8      0.00%     99.99% # Reads before turning the bus around for writes
system.mem_ctrls.rdPerTurnAround::9728-10239            6      0.00%     99.99% # Reads before turning the bus around for writes
system.mem_ctrls.rdPerTurnAround::10752-11263            1      0.00%     99.99% # Reads before turning the bus around for writes
system.mem_ctrls.rdPerTurnAround::11264-11775            6      0.00%     99.99% # Reads before turning the bus around for writes
system.mem_ctrls.rdPerTurnAround::11776-12287            5      0.00%    100.00% # Reads before turning the bus around for writes
system.mem_ctrls.rdPerTurnAround::12288-12799            1      0.00%    100.00% # Reads before turning the bus around for writes
system.mem_ctrls.rdPerTurnAround::12800-13311            1      0.00%    100.00% # Reads before turning the bus around for writes
system.mem_ctrls.rdPerTurnAround::14336-14847            1      0.00%    100.00% # Reads before turning the bus around for writes
system.mem_ctrls.rdPerTurnAround::14848-15359            2      0.00%    100.00% # Reads before turning the bus around for writes
system.mem_ctrls.rdPerTurnAround::15360-15871            1      0.00%    100.00% # Reads before turning the bus around for writes
system.mem_ctrls.rdPerTurnAround::15872-16383            1      0.00%    100.00% # Reads before turning the bus around for writes
system.mem_ctrls.rdPerTurnAround::total        169045                       # Reads before turning the bus around for writes
system.mem_ctrls.wrPerTurnAround::samples       169045                       # Writes before turning the bus around for reads
system.mem_ctrls.wrPerTurnAround::mean      16.031920                       # Writes before turning the bus around for reads
system.mem_ctrls.wrPerTurnAround::gmean     16.030129                       # Writes before turning the bus around for reads
system.mem_ctrls.wrPerTurnAround::stdev      0.249081                       # Writes before turning the bus around for reads
system.mem_ctrls.wrPerTurnAround::16           166246     98.34%     98.34% # Writes before turning the bus around for reads
system.mem_ctrls.wrPerTurnAround::17              237      0.14%     98.48% # Writes before turning the bus around for reads
system.mem_ctrls.wrPerTurnAround::18             2527      1.49%     99.98% # Writes before turning the bus around for reads
system.mem_ctrls.wrPerTurnAround::19               35      0.02%    100.00% # Writes before turning the bus around for reads
system.mem_ctrls.wrPerTurnAround::total        169045                       # Writes before turning the bus around for reads
system.mem_ctrls.totQLat                 101953311479                       # Total ticks spent queuing
system.mem_ctrls.totMemAccLat            212964767729                       # Total ticks spent from burst creation until serviced by the DRAM
system.mem_ctrls.totBusLat                29603055000                       # Total ticks spent in databus transfers
system.mem_ctrls.avgQLat                     17220.07                       # Average queueing delay per DRAM burst
system.mem_ctrls.avgBusLat                    5000.00                       # Average bus latency per DRAM burst
system.mem_ctrls.avgMemAccLat                35970.07                       # Average memory access latency per DRAM burst
system.mem_ctrls.avgRdBW                       190.45                       # Average DRAM read bandwidth in MiByte/s
system.mem_ctrls.avgWrBW                        87.17                       # Average achieved write bandwidth in MiByte/s
system.mem_ctrls.avgRdBWSys                    190.55                       # Average system read bandwidth in MiByte/s
system.mem_ctrls.avgWrBWSys                     87.17                       # Average system write bandwidth in MiByte/s
system.mem_ctrls.peakBW                      12800.00                       # Theoretical peak bandwidth in MiByte/s
system.mem_ctrls.busUtil                         2.17                       # Data bus utilization in percentage
system.mem_ctrls.busUtilRead                     1.49                       # Data bus utilization in percentage for reads
system.mem_ctrls.busUtilWrite                    0.68                       # Data bus utilization in percentage for writes
system.mem_ctrls.avgRdQLen                       1.00                       # Average read queue length when enqueuing
system.mem_ctrls.avgWrQLen                      25.59                       # Average write queue length when enqueuing
system.mem_ctrls.readRowHits                  3751513                       # Number of row buffer hits during reads
system.mem_ctrls.writeRowHits                 1136869                       # Number of row buffer hits during writes
system.mem_ctrls.readRowHitRate                 63.36                       # Row buffer hit rate for reads
system.mem_ctrls.writeRowHitRate                41.95                       # Row buffer hit rate for writes
system.mem_ctrls.avgGap                     230444.50                       # Average gap between requests
system.mem_ctrls.pageHitRate                    56.64                       # Row buffer hit rate, read and write combined
system.mem_ctrls_0.actEnergy              14266158480                       # Energy for activate commands per rank (pJ)
system.mem_ctrls_0.preEnergy               7784114250                       # Energy for precharge commands per rank (pJ)
system.mem_ctrls_0.readEnergy             23250411600                       # Energy for read commands per rank (pJ)
system.mem_ctrls_0.writeEnergy             8852237280                       # Energy for write commands per rank (pJ)
system.mem_ctrls_0.refreshEnergy         130204074000                       # Energy for refresh commands per rank (pJ)
system.mem_ctrls_0.actBackEnergy         697542794730                       # Energy for active background per rank (pJ)
system.mem_ctrls_0.preBackEnergy         584205305250                       # Energy for precharge background per rank (pJ)
system.mem_ctrls_0.totalEnergy           1466105095590                       # Total energy per rank (pJ)
system.mem_ctrls_0.averagePower            735.451991                       # Core power per rank (mW)
system.mem_ctrls_0.memoryStateTime::IDLE 965134328250                       # Time in different power states
system.mem_ctrls_0.memoryStateTime::REF   66438840000                       # Time in different power states
system.mem_ctrls_0.memoryStateTime::PRE_PDN            0                       # Time in different power states
system.mem_ctrls_0.memoryStateTime::ACT  958072304750                       # Time in different power states
system.mem_ctrls_0.memoryStateTime::ACT_PDN            0                       # Time in different power states
system.mem_ctrls_1.actEnergy              14056345800                       # Energy for activate commands per rank (pJ)
system.mem_ctrls_1.preEnergy               7669633125                       # Energy for precharge commands per rank (pJ)
system.mem_ctrls_1.readEnergy             23049608400                       # Energy for read commands per rank (pJ)
system.mem_ctrls_1.writeEnergy             8709314400                       # Energy for write commands per rank (pJ)
system.mem_ctrls_1.refreshEnergy         130204074000                       # Energy for refresh commands per rank (pJ)
system.mem_ctrls_1.actBackEnergy         698494895370                       # Energy for active background per rank (pJ)
system.mem_ctrls_1.preBackEnergy         583370129250                       # Energy for precharge background per rank (pJ)
system.mem_ctrls_1.totalEnergy           1465554000345                       # Total energy per rank (pJ)
system.mem_ctrls_1.averagePower            735.175541                       # Core power per rank (mW)
system.mem_ctrls_1.memoryStateTime::IDLE 963739134001                       # Time in different power states
system.mem_ctrls_1.memoryStateTime::REF   66438840000                       # Time in different power states
system.mem_ctrls_1.memoryStateTime::PRE_PDN            0                       # Time in different power states
system.mem_ctrls_1.memoryStateTime::ACT  959473633499                       # Time in different power states
system.mem_ctrls_1.memoryStateTime::ACT_PDN            0                       # Time in different power states
system.cpu_voltage_domain.voltage                   1                       # Voltage in Volts
system.cpu_clk_domain.clock                       500                       # Clock period in ticks
system.cpu0.apic_clk_domain.clock                8000                       # Clock period in ticks
system.cpu0.numCycles                      3980244551                       # number of cpu cycles simulated
system.cpu0.numWorkItemsStarted                     0                       # number of work items this cpu started
system.cpu0.numWorkItemsCompleted                   0                       # number of work items this cpu completed
system.cpu0.kern.inst.arm                           0                       # number of arm instructions executed
system.cpu0.kern.inst.quiesce                       0                       # number of quiesce instructions executed
system.cpu0.committedInsts                    1579063                       # Number of instructions committed
system.cpu0.committedOps                      3447828                       # Number of ops (including micro ops) committed
system.cpu0.num_int_alu_accesses              3373446                       # Number of integer alu accesses
system.cpu0.num_fp_alu_accesses                     0                       # Number of float alu accesses
system.cpu0.num_func_calls                     102218                       # number of times a function call or return occured
system.cpu0.num_conditional_control_insts       226874                       # number of instructions that are conditional controls
system.cpu0.num_int_insts                     3373446                       # number of integer instructions
system.cpu0.num_fp_insts                            0                       # number of float instructions
system.cpu0.num_int_register_reads            6855489                       # number of times the integer registers were read
system.cpu0.num_int_register_writes           2795644                       # number of times the integer registers were written
system.cpu0.num_fp_register_reads                   0                       # number of times the floating registers were read
system.cpu0.num_fp_register_writes                  0                       # number of times the floating registers were written
system.cpu0.num_cc_register_reads             1898616                       # number of times the CC registers were read
system.cpu0.num_cc_register_writes            1029631                       # number of times the CC registers were written
system.cpu0.num_mem_refs                       813705                       # number of memory refs
system.cpu0.num_load_insts                     502292                       # Number of load instructions
system.cpu0.num_store_insts                    311413                       # Number of store instructions
system.cpu0.num_idle_cycles              3968659061.803249                       # Number of idle cycles
system.cpu0.num_busy_cycles              11585489.196751                       # Number of busy cycles
system.cpu0.not_idle_fraction                0.002911                       # Percentage of non-idle cycles
system.cpu0.idle_fraction                    0.997089                       # Percentage of idle cycles
system.cpu0.Branches                           360139                       # Number of branches fetched
system.cpu0.op_class::No_OpClass                59864      1.74%      1.74% # Class of executed instruction
system.cpu0.op_class::IntAlu                  2547754     73.89%     75.63% # Class of executed instruction
system.cpu0.op_class::IntMult                    6495      0.19%     75.82% # Class of executed instruction
system.cpu0.op_class::IntDiv                    20013      0.58%     76.40% # Class of executed instruction
system.cpu0.op_class::FloatAdd                      0      0.00%     76.40% # Class of executed instruction
system.cpu0.op_class::FloatCmp                      0      0.00%     76.40% # Class of executed instruction
system.cpu0.op_class::FloatCvt                      0      0.00%     76.40% # Class of executed instruction
system.cpu0.op_class::FloatMult                     0      0.00%     76.40% # Class of executed instruction
system.cpu0.op_class::FloatDiv                      0      0.00%     76.40% # Class of executed instruction
system.cpu0.op_class::FloatSqrt                     0      0.00%     76.40% # Class of executed instruction
system.cpu0.op_class::SimdAdd                       0      0.00%     76.40% # Class of executed instruction
system.cpu0.op_class::SimdAddAcc                    0      0.00%     76.40% # Class of executed instruction
system.cpu0.op_class::SimdAlu                       0      0.00%     76.40% # Class of executed instruction
system.cpu0.op_class::SimdCmp                       0      0.00%     76.40% # Class of executed instruction
system.cpu0.op_class::SimdCvt                       0      0.00%     76.40% # Class of executed instruction
system.cpu0.op_class::SimdMisc                      0      0.00%     76.40% # Class of executed instruction
system.cpu0.op_class::SimdMult                      0      0.00%     76.40% # Class of executed instruction
system.cpu0.op_class::SimdMultAcc                   0      0.00%     76.40% # Class of executed instruction
system.cpu0.op_class::SimdShift                     0      0.00%     76.40% # Class of executed instruction
system.cpu0.op_class::SimdShiftAcc                  0      0.00%     76.40% # Class of executed instruction
system.cpu0.op_class::SimdSqrt                      0      0.00%     76.40% # Class of executed instruction
system.cpu0.op_class::SimdFloatAdd                  0      0.00%     76.40% # Class of executed instruction
system.cpu0.op_class::SimdFloatAlu                  0      0.00%     76.40% # Class of executed instruction
system.cpu0.op_class::SimdFloatCmp                  0      0.00%     76.40% # Class of executed instruction
system.cpu0.op_class::SimdFloatCvt                  0      0.00%     76.40% # Class of executed instruction
system.cpu0.op_class::SimdFloatDiv                  0      0.00%     76.40% # Class of executed instruction
system.cpu0.op_class::SimdFloatMisc                 0      0.00%     76.40% # Class of executed instruction
system.cpu0.op_class::SimdFloatMult                 0      0.00%     76.40% # Class of executed instruction
system.cpu0.op_class::SimdFloatMultAcc              0      0.00%     76.40% # Class of executed instruction
system.cpu0.op_class::SimdFloatSqrt                 0      0.00%     76.40% # Class of executed instruction
system.cpu0.op_class::MemRead                  502292     14.57%     90.97% # Class of executed instruction
system.cpu0.op_class::MemWrite                 311413      9.03%    100.00% # Class of executed instruction
system.cpu0.op_class::IprAccess                     0      0.00%    100.00% # Class of executed instruction
system.cpu0.op_class::InstPrefetch                  0      0.00%    100.00% # Class of executed instruction
system.cpu0.op_class::total                   3447831                       # Class of executed instruction
system.cpu1.apic_clk_domain.clock                8000                       # Clock period in ticks
system.cpu1.numCycles                      3976904495                       # number of cpu cycles simulated
system.cpu1.numWorkItemsStarted                     0                       # number of work items this cpu started
system.cpu1.numWorkItemsCompleted                   0                       # number of work items this cpu completed
system.cpu1.kern.inst.arm                           0                       # number of arm instructions executed
system.cpu1.kern.inst.quiesce                       0                       # number of quiesce instructions executed
system.cpu1.committedInsts                    4002837                       # Number of instructions committed
system.cpu1.committedOps                      8030403                       # Number of ops (including micro ops) committed
system.cpu1.num_int_alu_accesses              7884667                       # Number of integer alu accesses
system.cpu1.num_fp_alu_accesses                  1893                       # Number of float alu accesses
system.cpu1.num_func_calls                     209621                       # number of times a function call or return occured
system.cpu1.num_conditional_control_insts       672172                       # number of instructions that are conditional controls
system.cpu1.num_int_insts                     7884667                       # number of integer instructions
system.cpu1.num_fp_insts                         1893                       # number of float instructions
system.cpu1.num_int_register_reads           15704952                       # number of times the integer registers were read
system.cpu1.num_int_register_writes           6420744                       # number of times the integer registers were written
system.cpu1.num_fp_register_reads                3183                       # number of times the floating registers were read
system.cpu1.num_fp_register_writes               1511                       # number of times the floating registers were written
system.cpu1.num_cc_register_reads             5042154                       # number of times the CC registers were read
system.cpu1.num_cc_register_writes            2716309                       # number of times the CC registers were written
system.cpu1.num_mem_refs                      1821945                       # number of memory refs
system.cpu1.num_load_insts                    1179785                       # Number of load instructions
system.cpu1.num_store_insts                    642160                       # Number of store instructions
system.cpu1.num_idle_cycles              3953953279.273993                       # Number of idle cycles
system.cpu1.num_busy_cycles              22951215.726007                       # Number of busy cycles
system.cpu1.not_idle_fraction                0.005771                       # Percentage of non-idle cycles
system.cpu1.idle_fraction                    0.994229                       # Percentage of idle cycles
system.cpu1.Branches                           920790                       # Number of branches fetched
system.cpu1.op_class::No_OpClass                61612      0.77%      0.77% # Class of executed instruction
system.cpu1.op_class::IntAlu                  6116482     76.17%     76.93% # Class of executed instruction
system.cpu1.op_class::IntMult                    8529      0.11%     77.04% # Class of executed instruction
system.cpu1.op_class::IntDiv                    20492      0.26%     77.29% # Class of executed instruction
system.cpu1.op_class::FloatAdd                   1434      0.02%     77.31% # Class of executed instruction
system.cpu1.op_class::FloatCmp                      0      0.00%     77.31% # Class of executed instruction
system.cpu1.op_class::FloatCvt                      0      0.00%     77.31% # Class of executed instruction
system.cpu1.op_class::FloatMult                     0      0.00%     77.31% # Class of executed instruction
system.cpu1.op_class::FloatDiv                      0      0.00%     77.31% # Class of executed instruction
system.cpu1.op_class::FloatSqrt                     0      0.00%     77.31% # Class of executed instruction
system.cpu1.op_class::SimdAdd                       0      0.00%     77.31% # Class of executed instruction
system.cpu1.op_class::SimdAddAcc                    0      0.00%     77.31% # Class of executed instruction
system.cpu1.op_class::SimdAlu                       0      0.00%     77.31% # Class of executed instruction
system.cpu1.op_class::SimdCmp                       0      0.00%     77.31% # Class of executed instruction
system.cpu1.op_class::SimdCvt                       0      0.00%     77.31% # Class of executed instruction
system.cpu1.op_class::SimdMisc                      0      0.00%     77.31% # Class of executed instruction
system.cpu1.op_class::SimdMult                      0      0.00%     77.31% # Class of executed instruction
system.cpu1.op_class::SimdMultAcc                   0      0.00%     77.31% # Class of executed instruction
system.cpu1.op_class::SimdShift                     0      0.00%     77.31% # Class of executed instruction
system.cpu1.op_class::SimdShiftAcc                  0      0.00%     77.31% # Class of executed instruction
system.cpu1.op_class::SimdSqrt                      0      0.00%     77.31% # Class of executed instruction
system.cpu1.op_class::SimdFloatAdd                  0      0.00%     77.31% # Class of executed instruction
system.cpu1.op_class::SimdFloatAlu                  0      0.00%     77.31% # Class of executed instruction
system.cpu1.op_class::SimdFloatCmp                  0      0.00%     77.31% # Class of executed instruction
system.cpu1.op_class::SimdFloatCvt                  0      0.00%     77.31% # Class of executed instruction
system.cpu1.op_class::SimdFloatDiv                  0      0.00%     77.31% # Class of executed instruction
system.cpu1.op_class::SimdFloatMisc                 0      0.00%     77.31% # Class of executed instruction
system.cpu1.op_class::SimdFloatMult                 0      0.00%     77.31% # Class of executed instruction
system.cpu1.op_class::SimdFloatMultAcc              0      0.00%     77.31% # Class of executed instruction
system.cpu1.op_class::SimdFloatSqrt                 0      0.00%     77.31% # Class of executed instruction
system.cpu1.op_class::MemRead                 1179785     14.69%     92.00% # Class of executed instruction
system.cpu1.op_class::MemWrite                 642160      8.00%    100.00% # Class of executed instruction
system.cpu1.op_class::IprAccess                     0      0.00%    100.00% # Class of executed instruction
system.cpu1.op_class::InstPrefetch                  0      0.00%    100.00% # Class of executed instruction
system.cpu1.op_class::total                   8030494                       # Class of executed instruction
system.cpu2.apic_clk_domain.clock                8000                       # Clock period in ticks
system.cpu2.numCycles                      3983001075                       # number of cpu cycles simulated
system.cpu2.numWorkItemsStarted                     0                       # number of work items this cpu started
system.cpu2.numWorkItemsCompleted                   0                       # number of work items this cpu completed
system.cpu2.kern.inst.arm                           0                       # number of arm instructions executed
system.cpu2.kern.inst.quiesce                       0                       # number of quiesce instructions executed
system.cpu2.committedInsts                    1447638                       # Number of instructions committed
system.cpu2.committedOps                      3119366                       # Number of ops (including micro ops) committed
system.cpu2.num_int_alu_accesses              3049889                       # Number of integer alu accesses
system.cpu2.num_fp_alu_accesses                    39                       # Number of float alu accesses
system.cpu2.num_func_calls                      85296                       # number of times a function call or return occured
system.cpu2.num_conditional_control_insts       220225                       # number of instructions that are conditional controls
system.cpu2.num_int_insts                     3049889                       # number of integer instructions
system.cpu2.num_fp_insts                           39                       # number of float instructions
system.cpu2.num_int_register_reads            6205699                       # number of times the integer registers were read
system.cpu2.num_int_register_writes           2530630                       # number of times the integer registers were written
system.cpu2.num_fp_register_reads                  63                       # number of times the floating registers were read
system.cpu2.num_fp_register_writes                 31                       # number of times the floating registers were written
system.cpu2.num_cc_register_reads             1763397                       # number of times the CC registers were read
system.cpu2.num_cc_register_writes             922515                       # number of times the CC registers were written
system.cpu2.num_mem_refs                       743576                       # number of memory refs
system.cpu2.num_load_insts                     461294                       # Number of load instructions
system.cpu2.num_store_insts                    282282                       # Number of store instructions
system.cpu2.num_idle_cycles              3973143689.270255                       # Number of idle cycles
system.cpu2.num_busy_cycles              9857385.729745                       # Number of busy cycles
system.cpu2.not_idle_fraction                0.002475                       # Percentage of non-idle cycles
system.cpu2.idle_fraction                    0.997525                       # Percentage of idle cycles
system.cpu2.Branches                           333594                       # Number of branches fetched
system.cpu2.op_class::No_OpClass                59421      1.90%      1.90% # Class of executed instruction
system.cpu2.op_class::IntAlu                  2289164     73.39%     75.29% # Class of executed instruction
system.cpu2.op_class::IntMult                    6094      0.20%     75.49% # Class of executed instruction
system.cpu2.op_class::IntDiv                    21104      0.68%     76.16% # Class of executed instruction
system.cpu2.op_class::FloatAdd                     30      0.00%     76.16% # Class of executed instruction
system.cpu2.op_class::FloatCmp                      0      0.00%     76.16% # Class of executed instruction
system.cpu2.op_class::FloatCvt                      0      0.00%     76.16% # Class of executed instruction
system.cpu2.op_class::FloatMult                     0      0.00%     76.16% # Class of executed instruction
system.cpu2.op_class::FloatDiv                      0      0.00%     76.16% # Class of executed instruction
system.cpu2.op_class::FloatSqrt                     0      0.00%     76.16% # Class of executed instruction
system.cpu2.op_class::SimdAdd                       0      0.00%     76.16% # Class of executed instruction
system.cpu2.op_class::SimdAddAcc                    0      0.00%     76.16% # Class of executed instruction
system.cpu2.op_class::SimdAlu                       0      0.00%     76.16% # Class of executed instruction
system.cpu2.op_class::SimdCmp                       0      0.00%     76.16% # Class of executed instruction
system.cpu2.op_class::SimdCvt                       0      0.00%     76.16% # Class of executed instruction
system.cpu2.op_class::SimdMisc                      0      0.00%     76.16% # Class of executed instruction
system.cpu2.op_class::SimdMult                      0      0.00%     76.16% # Class of executed instruction
system.cpu2.op_class::SimdMultAcc                   0      0.00%     76.16% # Class of executed instruction
system.cpu2.op_class::SimdShift                     0      0.00%     76.16% # Class of executed instruction
system.cpu2.op_class::SimdShiftAcc                  0      0.00%     76.16% # Class of executed instruction
system.cpu2.op_class::SimdSqrt                      0      0.00%     76.16% # Class of executed instruction
system.cpu2.op_class::SimdFloatAdd                  0      0.00%     76.16% # Class of executed instruction
system.cpu2.op_class::SimdFloatAlu                  0      0.00%     76.16% # Class of executed instruction
system.cpu2.op_class::SimdFloatCmp                  0      0.00%     76.16% # Class of executed instruction
system.cpu2.op_class::SimdFloatCvt                  0      0.00%     76.16% # Class of executed instruction
system.cpu2.op_class::SimdFloatDiv                  0      0.00%     76.16% # Class of executed instruction
system.cpu2.op_class::SimdFloatMisc                 0      0.00%     76.16% # Class of executed instruction
system.cpu2.op_class::SimdFloatMult                 0      0.00%     76.16% # Class of executed instruction
system.cpu2.op_class::SimdFloatMultAcc              0      0.00%     76.16% # Class of executed instruction
system.cpu2.op_class::SimdFloatSqrt                 0      0.00%     76.16% # Class of executed instruction
system.cpu2.op_class::MemRead                  461294     14.79%     90.95% # Class of executed instruction
system.cpu2.op_class::MemWrite                 282282      9.05%    100.00% # Class of executed instruction
system.cpu2.op_class::IprAccess                     0      0.00%    100.00% # Class of executed instruction
system.cpu2.op_class::InstPrefetch                  0      0.00%    100.00% # Class of executed instruction
system.cpu2.op_class::total                   3119389                       # Class of executed instruction
system.cpu3.apic_clk_domain.clock                8000                       # Clock period in ticks
system.cpu3.numCycles                      3981551177                       # number of cpu cycles simulated
system.cpu3.numWorkItemsStarted                     0                       # number of work items this cpu started
system.cpu3.numWorkItemsCompleted                   0                       # number of work items this cpu completed
system.cpu3.kern.inst.arm                           0                       # number of arm instructions executed
system.cpu3.kern.inst.quiesce                       0                       # number of quiesce instructions executed
system.cpu3.committedInsts                  717165604                       # Number of instructions committed
system.cpu3.committedOps                   1064444331                       # Number of ops (including micro ops) committed
system.cpu3.num_int_alu_accesses            463953513                       # Number of integer alu accesses
system.cpu3.num_fp_alu_accesses             708837843                       # Number of float alu accesses
system.cpu3.num_func_calls                     901053                       # number of times a function call or return occured
system.cpu3.num_conditional_control_insts     10835676                       # number of instructions that are conditional controls
system.cpu3.num_int_insts                   463953513                       # number of integer instructions
system.cpu3.num_fp_insts                    708837843                       # number of float instructions
system.cpu3.num_int_register_reads          971995848                       # number of times the integer registers were read
system.cpu3.num_int_register_writes         343824932                       # number of times the integer registers were written
system.cpu3.num_fp_register_reads          1593836311                       # number of times the floating registers were read
system.cpu3.num_fp_register_writes          654311799                       # number of times the floating registers were written
system.cpu3.num_cc_register_reads           111671518                       # number of times the CC registers were read
system.cpu3.num_cc_register_writes          201648332                       # number of times the CC registers were written
system.cpu3.num_mem_refs                    129359834                       # number of memory refs
system.cpu3.num_load_insts                   75448849                       # Number of load instructions
system.cpu3.num_store_insts                  53910985                       # Number of store instructions
system.cpu3.num_idle_cycles              12679503.976080                       # Number of idle cycles
system.cpu3.num_busy_cycles              3968871673.023920                       # Number of busy cycles
system.cpu3.not_idle_fraction                0.996815                       # Percentage of non-idle cycles
system.cpu3.idle_fraction                    0.003185                       # Percentage of idle cycles
system.cpu3.Branches                         12028227                       # Number of branches fetched
system.cpu3.op_class::No_OpClass               314291      0.03%      0.03% # Class of executed instruction
system.cpu3.op_class::IntAlu                431379355     40.53%     40.56% # Class of executed instruction
system.cpu3.op_class::IntMult                   88319      0.01%     40.56% # Class of executed instruction
system.cpu3.op_class::IntDiv                     2259      0.00%     40.56% # Class of executed instruction
system.cpu3.op_class::FloatAdd              503316796     47.28%     87.85% # Class of executed instruction
system.cpu3.op_class::FloatCmp                      0      0.00%     87.85% # Class of executed instruction
system.cpu3.op_class::FloatCvt                      0      0.00%     87.85% # Class of executed instruction
system.cpu3.op_class::FloatMult                     0      0.00%     87.85% # Class of executed instruction
system.cpu3.op_class::FloatDiv                      0      0.00%     87.85% # Class of executed instruction
system.cpu3.op_class::FloatSqrt                     0      0.00%     87.85% # Class of executed instruction
system.cpu3.op_class::SimdAdd                       0      0.00%     87.85% # Class of executed instruction
system.cpu3.op_class::SimdAddAcc                    0      0.00%     87.85% # Class of executed instruction
system.cpu3.op_class::SimdAlu                       0      0.00%     87.85% # Class of executed instruction
system.cpu3.op_class::SimdCmp                       0      0.00%     87.85% # Class of executed instruction
system.cpu3.op_class::SimdCvt                       0      0.00%     87.85% # Class of executed instruction
system.cpu3.op_class::SimdMisc                      0      0.00%     87.85% # Class of executed instruction
system.cpu3.op_class::SimdMult                      0      0.00%     87.85% # Class of executed instruction
system.cpu3.op_class::SimdMultAcc                   0      0.00%     87.85% # Class of executed instruction
system.cpu3.op_class::SimdShift                     0      0.00%     87.85% # Class of executed instruction
system.cpu3.op_class::SimdShiftAcc                  0      0.00%     87.85% # Class of executed instruction
system.cpu3.op_class::SimdSqrt                      0      0.00%     87.85% # Class of executed instruction
system.cpu3.op_class::SimdFloatAdd                  0      0.00%     87.85% # Class of executed instruction
system.cpu3.op_class::SimdFloatAlu                  0      0.00%     87.85% # Class of executed instruction
system.cpu3.op_class::SimdFloatCmp                  0      0.00%     87.85% # Class of executed instruction
system.cpu3.op_class::SimdFloatCvt                  0      0.00%     87.85% # Class of executed instruction
system.cpu3.op_class::SimdFloatDiv                  0      0.00%     87.85% # Class of executed instruction
system.cpu3.op_class::SimdFloatMisc                 0      0.00%     87.85% # Class of executed instruction
system.cpu3.op_class::SimdFloatMult                 0      0.00%     87.85% # Class of executed instruction
system.cpu3.op_class::SimdFloatMultAcc              0      0.00%     87.85% # Class of executed instruction
system.cpu3.op_class::SimdFloatSqrt                 0      0.00%     87.85% # Class of executed instruction
system.cpu3.op_class::MemRead                75448849      7.09%     94.94% # Class of executed instruction
system.cpu3.op_class::MemWrite               53910985      5.06%    100.00% # Class of executed instruction
system.cpu3.op_class::IprAccess                     0      0.00%    100.00% # Class of executed instruction
system.cpu3.op_class::InstPrefetch                  0      0.00%    100.00% # Class of executed instruction
system.cpu3.op_class::total                1064460854                       # Class of executed instruction
system.iobus.trans_dist::ReadReq                   83                       # Transaction distribution
system.iobus.trans_dist::ReadResp                  83                       # Transaction distribution
system.iobus.trans_dist::WriteReq                2055                       # Transaction distribution
system.iobus.trans_dist::WriteResp               2055                       # Transaction distribution
system.iobus.trans_dist::MessageReq                13                       # Transaction distribution
system.iobus.trans_dist::MessageResp               13                       # Transaction distribution
system.iobus.pkt_count_system.pc.south_bridge.io_apic.int_master::system.ruby.l0_cntrl0.sequencer.pio-slave-port            2                       # Packet count per connected master and slave (bytes)
system.iobus.pkt_count_system.pc.south_bridge.io_apic.int_master::system.ruby.l0_cntrl1.sequencer.pio-slave-port            4                       # Packet count per connected master and slave (bytes)
system.iobus.pkt_count_system.pc.south_bridge.io_apic.int_master::system.ruby.l0_cntrl2.sequencer.pio-slave-port            2                       # Packet count per connected master and slave (bytes)
system.iobus.pkt_count_system.pc.south_bridge.io_apic.int_master::system.ruby.l0_cntrl3.sequencer.pio-slave-port            2                       # Packet count per connected master and slave (bytes)
system.iobus.pkt_count_system.pc.south_bridge.io_apic.int_master::total           10                       # Packet count per connected master and slave (bytes)
system.iobus.pkt_count_system.ruby.l0_cntrl0.sequencer.mem-master-port::system.pc.south_bridge.io_apic.pio            6                       # Packet count per connected master and slave (bytes)
system.iobus.pkt_count_system.ruby.l0_cntrl0.sequencer.mem-master-port::system.pc.com_1.pio           22                       # Packet count per connected master and slave (bytes)
system.iobus.pkt_count_system.ruby.l0_cntrl0.sequencer.mem-master-port::system.ruby.l0_cntrl0.sequencer.pio-slave-port         1008                       # Packet count per connected master and slave (bytes)
system.iobus.pkt_count_system.ruby.l0_cntrl0.sequencer.mem-master-port::system.ruby.l0_cntrl1.sequencer.pio-slave-port            2                       # Packet count per connected master and slave (bytes)
system.iobus.pkt_count_system.ruby.l0_cntrl0.sequencer.mem-master-port::total         1038                       # Packet count per connected master and slave (bytes)
system.iobus.pkt_count_system.ruby.l0_cntrl1.sequencer.mem-master-port::system.pc.south_bridge.io_apic.pio           14                       # Packet count per connected master and slave (bytes)
system.iobus.pkt_count_system.ruby.l0_cntrl1.sequencer.mem-master-port::system.pc.com_1.pio          162                       # Packet count per connected master and slave (bytes)
system.iobus.pkt_count_system.ruby.l0_cntrl1.sequencer.mem-master-port::system.ruby.l0_cntrl0.sequencer.pio-slave-port            2                       # Packet count per connected master and slave (bytes)
system.iobus.pkt_count_system.ruby.l0_cntrl1.sequencer.mem-master-port::system.ruby.l0_cntrl1.sequencer.pio-slave-port         1020                       # Packet count per connected master and slave (bytes)
system.iobus.pkt_count_system.ruby.l0_cntrl1.sequencer.mem-master-port::system.ruby.l0_cntrl2.sequencer.pio-slave-port            2                       # Packet count per connected master and slave (bytes)
system.iobus.pkt_count_system.ruby.l0_cntrl1.sequencer.mem-master-port::system.ruby.l0_cntrl3.sequencer.pio-slave-port            2                       # Packet count per connected master and slave (bytes)
system.iobus.pkt_count_system.ruby.l0_cntrl1.sequencer.mem-master-port::total         1202                       # Packet count per connected master and slave (bytes)
system.iobus.pkt_count_system.ruby.l0_cntrl2.sequencer.mem-master-port::system.pc.south_bridge.io_apic.pio            8                       # Packet count per connected master and slave (bytes)
system.iobus.pkt_count_system.ruby.l0_cntrl2.sequencer.mem-master-port::system.ruby.l0_cntrl2.sequencer.pio-slave-port         1008                       # Packet count per connected master and slave (bytes)
system.iobus.pkt_count_system.ruby.l0_cntrl2.sequencer.mem-master-port::system.ruby.l0_cntrl3.sequencer.pio-slave-port            2                       # Packet count per connected master and slave (bytes)
system.iobus.pkt_count_system.ruby.l0_cntrl2.sequencer.mem-master-port::total         1018                       # Packet count per connected master and slave (bytes)
system.iobus.pkt_count_system.ruby.l0_cntrl3.sequencer.mem-master-port::system.pc.south_bridge.io_apic.pio            8                       # Packet count per connected master and slave (bytes)
system.iobus.pkt_count_system.ruby.l0_cntrl3.sequencer.mem-master-port::system.ruby.l0_cntrl0.sequencer.pio-slave-port            2                       # Packet count per connected master and slave (bytes)
system.iobus.pkt_count_system.ruby.l0_cntrl3.sequencer.mem-master-port::system.ruby.l0_cntrl1.sequencer.pio-slave-port            2                       # Packet count per connected master and slave (bytes)
system.iobus.pkt_count_system.ruby.l0_cntrl3.sequencer.mem-master-port::system.ruby.l0_cntrl2.sequencer.pio-slave-port            2                       # Packet count per connected master and slave (bytes)
system.iobus.pkt_count_system.ruby.l0_cntrl3.sequencer.mem-master-port::system.ruby.l0_cntrl3.sequencer.pio-slave-port         1020                       # Packet count per connected master and slave (bytes)
system.iobus.pkt_count_system.ruby.l0_cntrl3.sequencer.mem-master-port::total         1034                       # Packet count per connected master and slave (bytes)
system.iobus.pkt_count::total                    4302                       # Packet count per connected master and slave (bytes)
system.iobus.pkt_size_system.pc.south_bridge.io_apic.int_master::system.ruby.l0_cntrl0.sequencer.pio-slave-port            4                       # Cumulative packet size per connected master and slave (bytes)
system.iobus.pkt_size_system.pc.south_bridge.io_apic.int_master::system.ruby.l0_cntrl1.sequencer.pio-slave-port            8                       # Cumulative packet size per connected master and slave (bytes)
system.iobus.pkt_size_system.pc.south_bridge.io_apic.int_master::system.ruby.l0_cntrl2.sequencer.pio-slave-port            4                       # Cumulative packet size per connected master and slave (bytes)
system.iobus.pkt_size_system.pc.south_bridge.io_apic.int_master::system.ruby.l0_cntrl3.sequencer.pio-slave-port            4                       # Cumulative packet size per connected master and slave (bytes)
system.iobus.pkt_size_system.pc.south_bridge.io_apic.int_master::total           20                       # Cumulative packet size per connected master and slave (bytes)
system.iobus.pkt_size_system.ruby.l0_cntrl0.sequencer.mem-master-port::system.pc.south_bridge.io_apic.pio           12                       # Cumulative packet size per connected master and slave (bytes)
system.iobus.pkt_size_system.ruby.l0_cntrl0.sequencer.mem-master-port::system.pc.com_1.pio           11                       # Cumulative packet size per connected master and slave (bytes)
system.iobus.pkt_size_system.ruby.l0_cntrl0.sequencer.mem-master-port::system.ruby.l0_cntrl0.sequencer.pio-slave-port         2016                       # Cumulative packet size per connected master and slave (bytes)
system.iobus.pkt_size_system.ruby.l0_cntrl0.sequencer.mem-master-port::system.ruby.l0_cntrl1.sequencer.pio-slave-port            4                       # Cumulative packet size per connected master and slave (bytes)
system.iobus.pkt_size_system.ruby.l0_cntrl0.sequencer.mem-master-port::total         2043                       # Cumulative packet size per connected master and slave (bytes)
system.iobus.pkt_size_system.ruby.l0_cntrl1.sequencer.mem-master-port::system.pc.south_bridge.io_apic.pio           28                       # Cumulative packet size per connected master and slave (bytes)
system.iobus.pkt_size_system.ruby.l0_cntrl1.sequencer.mem-master-port::system.pc.com_1.pio           81                       # Cumulative packet size per connected master and slave (bytes)
system.iobus.pkt_size_system.ruby.l0_cntrl1.sequencer.mem-master-port::system.ruby.l0_cntrl0.sequencer.pio-slave-port            4                       # Cumulative packet size per connected master and slave (bytes)
system.iobus.pkt_size_system.ruby.l0_cntrl1.sequencer.mem-master-port::system.ruby.l0_cntrl1.sequencer.pio-slave-port         2040                       # Cumulative packet size per connected master and slave (bytes)
system.iobus.pkt_size_system.ruby.l0_cntrl1.sequencer.mem-master-port::system.ruby.l0_cntrl2.sequencer.pio-slave-port            4                       # Cumulative packet size per connected master and slave (bytes)
system.iobus.pkt_size_system.ruby.l0_cntrl1.sequencer.mem-master-port::system.ruby.l0_cntrl3.sequencer.pio-slave-port            4                       # Cumulative packet size per connected master and slave (bytes)
system.iobus.pkt_size_system.ruby.l0_cntrl1.sequencer.mem-master-port::total         2161                       # Cumulative packet size per connected master and slave (bytes)
system.iobus.pkt_size_system.ruby.l0_cntrl2.sequencer.mem-master-port::system.pc.south_bridge.io_apic.pio           16                       # Cumulative packet size per connected master and slave (bytes)
system.iobus.pkt_size_system.ruby.l0_cntrl2.sequencer.mem-master-port::system.ruby.l0_cntrl2.sequencer.pio-slave-port         2016                       # Cumulative packet size per connected master and slave (bytes)
system.iobus.pkt_size_system.ruby.l0_cntrl2.sequencer.mem-master-port::system.ruby.l0_cntrl3.sequencer.pio-slave-port            4                       # Cumulative packet size per connected master and slave (bytes)
system.iobus.pkt_size_system.ruby.l0_cntrl2.sequencer.mem-master-port::total         2036                       # Cumulative packet size per connected master and slave (bytes)
system.iobus.pkt_size_system.ruby.l0_cntrl3.sequencer.mem-master-port::system.pc.south_bridge.io_apic.pio           16                       # Cumulative packet size per connected master and slave (bytes)
system.iobus.pkt_size_system.ruby.l0_cntrl3.sequencer.mem-master-port::system.ruby.l0_cntrl0.sequencer.pio-slave-port            4                       # Cumulative packet size per connected master and slave (bytes)
system.iobus.pkt_size_system.ruby.l0_cntrl3.sequencer.mem-master-port::system.ruby.l0_cntrl1.sequencer.pio-slave-port            4                       # Cumulative packet size per connected master and slave (bytes)
system.iobus.pkt_size_system.ruby.l0_cntrl3.sequencer.mem-master-port::system.ruby.l0_cntrl2.sequencer.pio-slave-port            4                       # Cumulative packet size per connected master and slave (bytes)
system.iobus.pkt_size_system.ruby.l0_cntrl3.sequencer.mem-master-port::system.ruby.l0_cntrl3.sequencer.pio-slave-port         2040                       # Cumulative packet size per connected master and slave (bytes)
system.iobus.pkt_size_system.ruby.l0_cntrl3.sequencer.mem-master-port::total         2068                       # Cumulative packet size per connected master and slave (bytes)
system.iobus.pkt_size::total                     8328                       # Cumulative packet size per connected master and slave (bytes)
system.iobus.reqLayer8.occupancy                31496                       # Layer occupancy (ticks)
system.iobus.reqLayer8.utilization                0.0                       # Layer utilization (%)
system.iobus.reqLayer12.occupancy              120000                       # Layer occupancy (ticks)
system.iobus.reqLayer12.utilization               0.0                       # Layer utilization (%)
system.iobus.reqLayer17.occupancy             1172000                       # Layer occupancy (ticks)
system.iobus.reqLayer17.utilization               0.0                       # Layer utilization (%)
system.iobus.reqLayer18.occupancy             1198998                       # Layer occupancy (ticks)
system.iobus.reqLayer18.utilization               0.0                       # Layer utilization (%)
system.iobus.reqLayer19.occupancy             1183500                       # Layer occupancy (ticks)
system.iobus.reqLayer19.utilization               0.0                       # Layer utilization (%)
system.iobus.reqLayer20.occupancy             1295212                       # Layer occupancy (ticks)
system.iobus.reqLayer20.utilization               0.0                       # Layer utilization (%)
system.iobus.respLayer0.occupancy                6000                       # Layer occupancy (ticks)
system.iobus.respLayer0.utilization               0.0                       # Layer utilization (%)
system.iobus.respLayer2.occupancy              781500                       # Layer occupancy (ticks)
system.iobus.respLayer2.utilization               0.0                       # Layer utilization (%)
system.iobus.respLayer4.occupancy              921000                       # Layer occupancy (ticks)
system.iobus.respLayer4.utilization               0.0                       # Layer utilization (%)
system.iobus.respLayer6.occupancy              764000                       # Layer occupancy (ticks)
system.iobus.respLayer6.utilization               0.0                       # Layer utilization (%)
system.iobus.respLayer8.occupancy              777500                       # Layer occupancy (ticks)
system.iobus.respLayer8.utilization               0.0                       # Layer utilization (%)
system.pc.south_bridge.ide.disks.dma_read_full_pages            0                       # Number of full page size DMA reads (not PRD).
system.pc.south_bridge.ide.disks.dma_read_bytes            0                       # Number of bytes transfered via DMA reads (not PRD).
system.pc.south_bridge.ide.disks.dma_read_txs            0                       # Number of DMA read transactions (not PRD).
system.pc.south_bridge.ide.disks.dma_write_full_pages            0                       # Number of full page size DMA writes.
system.pc.south_bridge.ide.disks.dma_write_bytes            0                       # Number of bytes transfered via DMA writes.
system.pc.south_bridge.ide.disks.dma_write_txs            0                       # Number of DMA write transactions.
system.ruby.clk_domain.clock                      500                       # Clock period in ticks
system.ruby.delayHist::bucket_size                  4                       # delay histogram for all message
system.ruby.delayHist::max_bucket                  39                       # delay histogram for all message
system.ruby.delayHist::samples              219796251                       # delay histogram for all message
system.ruby.delayHist::mean                  0.689930                       # delay histogram for all message
system.ruby.delayHist::stdev                 2.246442                       # delay histogram for all message
system.ruby.delayHist                    |   200850419     91.38%     91.38% |       22743      0.01%     91.39% |    18916296      8.61%    100.00% |        1787      0.00%    100.00% |        4994      0.00%    100.00% |           2      0.00%    100.00% |          10      0.00%    100.00% |           0      0.00%    100.00% |           0      0.00%    100.00% |           0      0.00%    100.00% # delay histogram for all message
system.ruby.delayHist::total                219796251                       # delay histogram for all message
system.ruby.outstanding_req_hist_seqr::bucket_size            1                      
system.ruby.outstanding_req_hist_seqr::max_bucket            9                      
system.ruby.outstanding_req_hist_seqr::samples   1226836981                      
system.ruby.outstanding_req_hist_seqr::mean     1.000000                      
system.ruby.outstanding_req_hist_seqr::gmean     1.000000                      
system.ruby.outstanding_req_hist_seqr::stdev     0.000437                      
system.ruby.outstanding_req_hist_seqr    |           0      0.00%      0.00% |  1226836747    100.00%    100.00% |         234      0.00%    100.00% |           0      0.00%    100.00% |           0      0.00%    100.00% |           0      0.00%    100.00% |           0      0.00%    100.00% |           0      0.00%    100.00% |           0      0.00%    100.00% |           0      0.00%    100.00%
system.ruby.outstanding_req_hist_seqr::total   1226836981                      
system.ruby.latency_hist_seqr::bucket_size          512                      
system.ruby.latency_hist_seqr::max_bucket         5119                      
[...]
system.ruby.L1Cache_Controller.WB_Ack::total     31229560                      
system.ruby.L1Cache_Controller.I.Load    |      147686      0.78%      0.78% |      242662      1.27%      2.05% |      153878      0.81%      2.86% |    18500865     97.14%    100.00%
system.ruby.L1Cache_Controller.I.Load::total     19045091                      
system.ruby.L1Cache_Controller.I.Store   |       24321      0.19%      0.19% |       73757      0.58%      0.77% |       26199      0.21%      0.98% |    12582171     99.02%    100.00%
system.ruby.L1Cache_Controller.I.Store::total     12706448                      
system.ruby.L1Cache_Controller.I.Inv     |        3155     19.84%     19.84% |        2125     13.36%     33.20% |        2103     13.22%     46.43% |        8519     53.57%    100.00%
system.ruby.L1Cache_Controller.I.Inv::total        15902                      
system.ruby.L1Cache_Controller.S.Load    |       93517     10.99%     10.99% |      158834     18.66%     29.64% |      117923     13.85%     43.50% |      481009     56.50%    100.00%
system.ruby.L1Cache_Controller.S.Load::total       851283                      
system.ruby.L1Cache_Controller.S.Store   |        2668     48.58%     48.58% |         938     17.08%     65.66% |         917     16.70%     82.36% |         969     17.64%    100.00%
system.ruby.L1Cache_Controller.S.Store::total         5492                      
system.ruby.L1Cache_Controller.S.L0_Invalidate_Own |       60274     13.92%     13.92% |       50159     11.58%     25.50% |       56634     13.08%     38.58% |      265984     61.42%    100.00%
system.ruby.L1Cache_Controller.S.L0_Invalidate_Own::total       433051                      
system.ruby.L1Cache_Controller.S.L0_Invalidate_Else |       12775     29.75%     29.75% |       14048     32.72%     62.47% |       15886     37.00%     99.46% |         230      0.54%    100.00%
system.ruby.L1Cache_Controller.S.L0_Invalidate_Else::total        42939                      
system.ruby.L1Cache_Controller.SS.Load   |        3736     27.51%     27.51% |        7431     54.72%     82.23% |        2206     16.24%     98.47% |         208      1.53%    100.00%
system.ruby.L1Cache_Controller.SS.Load::total        13581                      
system.ruby.L1Cache_Controller.SS.Store  |         634     87.93%     87.93% |          15      2.08%     90.01% |          36      4.99%     95.01% |          36      4.99%    100.00%
system.ruby.L1Cache_Controller.SS.Store::total          721                      
system.ruby.L1Cache_Controller.SS.Inv    |       14049     28.84%     28.84% |       16662     34.20%     63.04% |       17103     35.11%     98.14% |         904      1.86%    100.00%
system.ruby.L1Cache_Controller.SS.Inv::total        48718                      
system.ruby.L1Cache_Controller.SS.L1_Replacement |       62056     14.19%     14.19% |       51376     11.75%     25.95% |       56981     13.03%     38.98% |      266768     61.02%    100.00%
system.ruby.L1Cache_Controller.SS.L1_Replacement::total       437181                      
system.ruby.L1Cache_Controller.E.WriteBack |       71220      0.39%      0.39% |      173319      0.96%      1.35% |       76760      0.42%      1.77% |    17815986     98.23%    100.00%
system.ruby.L1Cache_Controller.E.WriteBack::total     18137285                      
system.ruby.L1Cache_Controller.E.L0_Invalidate_Own |        2003      0.47%      0.47% |        6226      1.45%      1.92% |        2908      0.68%      2.60% |      417688     97.40%    100.00%
system.ruby.L1Cache_Controller.E.L0_Invalidate_Own::total       428825                      
system.ruby.L1Cache_Controller.E.L0_Invalidate_Else |        2628     23.98%     23.98% |        5263     48.02%     71.99% |        2916     26.60%     98.60% |         154      1.40%    100.00%
system.ruby.L1Cache_Controller.E.L0_Invalidate_Else::total        10961                      
system.ruby.L1Cache_Controller.EE.Inv    |        1182     32.24%     32.24% |         890     24.28%     56.52% |        1586     43.26%     99.78% |           8      0.22%    100.00%
system.ruby.L1Cache_Controller.EE.Inv::total         3666                      
system.ruby.L1Cache_Controller.EE.L1_Replacement |        1803      0.43%      0.43% |        5954      1.41%      1.83% |        2554      0.60%      2.43% |      413283     97.57%    100.00%
system.ruby.L1Cache_Controller.EE.L1_Replacement::total       423594                      
system.ruby.L1Cache_Controller.EE.Fwd_GETX |          10     45.45%     45.45% |           3     13.64%     59.09% |           5     22.73%     81.82% |           4     18.18%    100.00%
system.ruby.L1Cache_Controller.EE.Fwd_GETX::total           22                      
system.ruby.L1Cache_Controller.EE.Fwd_GETS |        1245     20.63%     20.63% |        3900     64.61%     85.24% |         791     13.10%     98.34% |         100      1.66%    100.00%
system.ruby.L1Cache_Controller.EE.Fwd_GETS::total         6036                      
system.ruby.L1Cache_Controller.M.WriteBack |      103320      0.32%      0.32% |      384580      1.19%      1.52% |      125018      0.39%      1.90% |    31575413     98.10%    100.00%
system.ruby.L1Cache_Controller.M.WriteBack::total     32188331                      
system.ruby.L1Cache_Controller.M.L0_Invalidate_Own |        5287      5.37%      5.37% |        4765      4.84%     10.20% |        5173      5.25%     15.45% |       83310     84.55%    100.00%
system.ruby.L1Cache_Controller.M.L0_Invalidate_Own::total        98535                      
system.ruby.L1Cache_Controller.M.L0_Invalidate_Else |        6135     34.67%     34.67% |        5851     33.06%     67.73% |        5401     30.52%     98.25% |         310      1.75%    100.00%
system.ruby.L1Cache_Controller.M.L0_Invalidate_Else::total        17697                      
system.ruby.L1Cache_Controller.MM.Load   |       65187      0.62%      0.62% |      235061      2.25%      2.88% |       82170      0.79%      3.67% |    10048533     96.33%    100.00%
system.ruby.L1Cache_Controller.MM.Load::total     10430951                      
system.ruby.L1Cache_Controller.MM.Store  |       21941      0.24%      0.24% |       85401      0.93%      1.17% |       26274      0.29%      1.46% |     9027323     98.54%    100.00%
system.ruby.L1Cache_Controller.MM.Store::total      9160939                      
system.ruby.L1Cache_Controller.MM.Inv    |       11821     38.25%     38.25% |       10171     32.91%     71.16% |        8737     28.27%     99.43% |         175      0.57%    100.00%
system.ruby.L1Cache_Controller.MM.Inv::total        30904                      
system.ruby.L1Cache_Controller.MM.L1_Replacement |       80331      0.26%      0.26% |      231244      0.75%      1.01% |       92790      0.30%      1.31% |    30401601     98.69%    100.00%
system.ruby.L1Cache_Controller.MM.L1_Replacement::total     30805966                      
system.ruby.L1Cache_Controller.MM.Fwd_GETX |         712     47.75%     47.75% |         187     12.54%     60.30% |         292     19.58%     79.88% |         300     20.12%    100.00%
system.ruby.L1Cache_Controller.MM.Fwd_GETX::total         1491                      
system.ruby.L1Cache_Controller.MM.Fwd_GETS |        6152     34.15%     34.15% |        7422     41.19%     75.34% |        2851     15.82%     91.16% |        1592      8.84%    100.00%
system.ruby.L1Cache_Controller.MM.Fwd_GETS::total        18017                      
system.ruby.L1Cache_Controller.IS.Data_Exclusive |       75873      0.41%      0.41% |      184762      0.99%      1.40% |       82594      0.44%      1.85% |    18233827     98.15%    100.00%
system.ruby.L1Cache_Controller.IS.Data_Exclusive::total     18577056                      
system.ruby.L1Cache_Controller.IS.DataS_fromL1 |        4155     17.27%     17.27% |        3084     12.82%     30.09% |       11205     46.58%     76.68% |        5610     23.32%    100.00%
system.ruby.L1Cache_Controller.IS.DataS_fromL1::total        24054                      
system.ruby.L1Cache_Controller.IS.Data_all_Acks |       67658     15.24%     15.24% |       54816     12.35%     27.59% |       60079     13.53%     41.12% |      261428     58.88%    100.00%
system.ruby.L1Cache_Controller.IS.Data_all_Acks::total       443981                      
system.ruby.L1Cache_Controller.IM.Data   |        1194     55.77%     55.77% |         546     25.50%     81.27% |          72      3.36%     84.63% |         329     15.37%    100.00%
system.ruby.L1Cache_Controller.IM.Data::total         2141                      
system.ruby.L1Cache_Controller.IM.Data_all_Acks |       23130      0.18%      0.18% |       73213      0.58%      0.76% |       26127      0.21%      0.96% |    12581842     99.04%    100.00%
system.ruby.L1Cache_Controller.IM.Data_all_Acks::total     12704312                      
system.ruby.L1Cache_Controller.SM.Inv    |           3     60.00%     60.00% |           2     40.00%    100.00% |           0      0.00%    100.00% |           0      0.00%    100.00%
system.ruby.L1Cache_Controller.SM.Inv::total            5                      
system.ruby.L1Cache_Controller.SM.Ack    |        8912     66.75%     66.75% |        1895     14.19%     80.95% |        1458     10.92%     91.87% |        1086      8.13%    100.00%
system.ruby.L1Cache_Controller.SM.Ack::total        13351                      
system.ruby.L1Cache_Controller.SM.Ack_all |        4493     53.81%     53.81% |        1497     17.93%     71.75% |        1025     12.28%     84.02% |        1334     15.98%    100.00%
system.ruby.L1Cache_Controller.SM.Ack_all::total         8349                      
system.ruby.L1Cache_Controller.M_I.Fwd_GETS |           1    100.00%    100.00% |           0      0.00%    100.00% |           0      0.00%    100.00% |           0      0.00%    100.00%
system.ruby.L1Cache_Controller.M_I.Fwd_GETS::total            1                      
system.ruby.L1Cache_Controller.M_I.WB_Ack |       82133      0.26%      0.26% |      237198      0.76%      1.02% |       95344      0.31%      1.33% |    30814884     98.67%    100.00%
system.ruby.L1Cache_Controller.M_I.WB_Ack::total     31229559                      
system.ruby.L1Cache_Controller.SINK_WB_ACK.WB_Ack |           1    100.00%    100.00% |           0      0.00%    100.00% |           0      0.00%    100.00% |           0      0.00%    100.00%
system.ruby.L1Cache_Controller.SINK_WB_ACK.WB_Ack::total            1                      
system.ruby.L1Cache_Controller.S_IL0.L0_Invalidate_Own |       60274     13.92%     13.92% |       50159     11.58%     25.50% |       56634     13.08%     38.58% |      265984     61.42%    100.00%
system.ruby.L1Cache_Controller.S_IL0.L0_Invalidate_Own::total       433051                      
system.ruby.L1Cache_Controller.S_IL0.L0_Invalidate_Else |       12775     29.75%     29.75% |       14048     32.72%     62.47% |       15886     37.00%     99.46% |         230      0.54%    100.00%
system.ruby.L1Cache_Controller.S_IL0.L0_Invalidate_Else::total        42939                      
system.ruby.L1Cache_Controller.S_IL0.L0_Ack |       73049     15.35%     15.35% |       64207     13.49%     28.84% |       72520     15.24%     44.07% |      266214     55.93%    100.00%
system.ruby.L1Cache_Controller.S_IL0.L0_Ack::total       475990                      
system.ruby.L1Cache_Controller.E_IL0.L0_DataAck |         391      6.05%      6.05% |         742     11.47%     17.52% |         888     13.73%     31.25% |        4447     68.75%    100.00%
system.ruby.L1Cache_Controller.E_IL0.L0_DataAck::total         6468                      
system.ruby.L1Cache_Controller.E_IL0.L0_Invalidate_Own |        2003      0.47%      0.47% |        6226      1.45%      1.92% |        2908      0.68%      2.60% |      417688     97.40%    100.00%
system.ruby.L1Cache_Controller.E_IL0.L0_Invalidate_Own::total       428825                      
system.ruby.L1Cache_Controller.E_IL0.L0_Invalidate_Else |        2628     23.98%     23.98% |        5263     48.02%     71.99% |        2916     26.60%     98.60% |         154      1.40%    100.00%
system.ruby.L1Cache_Controller.E_IL0.L0_Invalidate_Else::total        10961                      
system.ruby.L1Cache_Controller.E_IL0.L0_Ack |        4240      0.98%      0.98% |       10747      2.48%      3.46% |        4936      1.14%      4.60% |      413395     95.40%    100.00%
system.ruby.L1Cache_Controller.E_IL0.L0_Ack::total       433318                      
system.ruby.L1Cache_Controller.M_IL0.WriteBack |           0      0.00%      0.00% |           1     50.00%     50.00% |           1     50.00%    100.00% |           0      0.00%    100.00%
system.ruby.L1Cache_Controller.M_IL0.WriteBack::total            2                      
system.ruby.L1Cache_Controller.M_IL0.L0_DataAck |        8008     18.31%     18.31% |        6279     14.36%     32.67% |        7572     17.31%     49.98% |       21878     50.02%    100.00%
system.ruby.L1Cache_Controller.M_IL0.L0_DataAck::total        43737                      
system.ruby.L1Cache_Controller.M_IL0.L0_Invalidate_Own |        5287      5.37%      5.37% |        4765      4.84%     10.20% |        5173      5.25%     15.45% |       83310     84.55%    100.00%
system.ruby.L1Cache_Controller.M_IL0.L0_Invalidate_Own::total        98535                      
system.ruby.L1Cache_Controller.M_IL0.L0_Invalidate_Else |        6135     34.67%     34.67% |        5851     33.06%     67.73% |        5401     30.52%     98.25% |         310      1.75%    100.00%
system.ruby.L1Cache_Controller.M_IL0.L0_Invalidate_Else::total        17697                      
system.ruby.L1Cache_Controller.M_IL0.L0_Ack |        3414      4.71%      4.71% |        4336      5.98%     10.69% |        3001      4.14%     14.83% |       61742     85.17%    100.00%
system.ruby.L1Cache_Controller.M_IL0.L0_Ack::total        72493                      
system.ruby.L1Cache_Controller.MM_IL0.Fwd_GETX |           0      0.00%      0.00% |           0      0.00%      0.00% |           1    100.00%    100.00% |           0      0.00%    100.00%
system.ruby.L1Cache_Controller.MM_IL0.Fwd_GETX::total            1                      
system.ruby.L1Cache_Controller.MM_IL0.Fwd_GETS |           0      0.00%      0.00% |           1    100.00%    100.00% |           0      0.00%    100.00% |           0      0.00%    100.00%
system.ruby.L1Cache_Controller.MM_IL0.Fwd_GETS::total            1                      
system.ruby.L1Cache_Controller.MM_IL0.L0_Ack |           0      0.00%      0.00% |           1     50.00%     50.00% |           1     50.00%    100.00% |           0      0.00%    100.00%
system.ruby.L1Cache_Controller.MM_IL0.L0_Ack::total            2                      
system.ruby.L2Cache_Controller.L1_GETS       19045206      0.00%      0.00%
system.ruby.L2Cache_Controller.L1_GETX       12706456      0.00%      0.00%
system.ruby.L2Cache_Controller.L1_UPGRADE         6213      0.00%      0.00%
system.ruby.L2Cache_Controller.L1_PUTX       31229561      0.00%      0.00%
system.ruby.L2Cache_Controller.L2_Replacement      2725755      0.00%      0.00%
system.ruby.L2Cache_Controller.L2_Replacement_clean      3230700      0.00%      0.00%
system.ruby.L2Cache_Controller.Mem_Data       5974003      0.00%      0.00%
system.ruby.L2Cache_Controller.Mem_Ack        5956457      0.00%      0.00%
system.ruby.L2Cache_Controller.WB_Data          26844      0.00%      0.00%
system.ruby.L2Cache_Controller.WB_Data_clean        28114      0.00%      0.00%
system.ruby.L2Cache_Controller.Ack              33901      0.00%      0.00%
system.ruby.L2Cache_Controller.Ack_all          18898      0.00%      0.00%
system.ruby.L2Cache_Controller.Unblock          24054      0.00%      0.00%
system.ruby.L2Cache_Controller.Exclusive_Unblock     31289717      0.00%      0.00%
system.ruby.L2Cache_Controller.MEM_Inv              4      0.00%      0.00%
system.ruby.L2Cache_Controller.NP.L1_GETS      3260553      0.00%      0.00%
system.ruby.L2Cache_Controller.NP.L1_GETX      2713450      0.00%      0.00%
system.ruby.L2Cache_Controller.SS.L1_GETS       443981      0.00%      0.00%
system.ruby.L2Cache_Controller.SS.L1_GETX         2141      0.00%      0.00%
system.ruby.L2Cache_Controller.SS.L1_UPGRADE         6208      0.00%      0.00%
system.ruby.L2Cache_Controller.SS.L1_PUTX            1      0.00%      0.00%
system.ruby.L2Cache_Controller.SS.L2_Replacement          398      0.00%      0.00%
system.ruby.L2Cache_Controller.SS.L2_Replacement_clean        14834      0.00%      0.00%
system.ruby.L2Cache_Controller.M.L1_GETS     15316503      0.00%      0.00%
system.ruby.L2Cache_Controller.M.L1_GETX      9989349      0.00%      0.00%
system.ruby.L2Cache_Controller.M.L2_Replacement      2723188      0.00%      0.00%
system.ruby.L2Cache_Controller.M.L2_Replacement_clean      3183467      0.00%      0.00%
system.ruby.L2Cache_Controller.MT.L1_GETS        24054      0.00%      0.00%
system.ruby.L2Cache_Controller.MT.L1_GETX         1513      0.00%      0.00%
system.ruby.L2Cache_Controller.MT.L1_PUTX     31229559      0.00%      0.00%
system.ruby.L2Cache_Controller.MT.L2_Replacement         2169      0.00%      0.00%
system.ruby.L2Cache_Controller.MT.L2_Replacement_clean        32399      0.00%      0.00%
system.ruby.L2Cache_Controller.MT.MEM_Inv            2      0.00%      0.00%
system.ruby.L2Cache_Controller.M_I.L1_GETS            1      0.00%      0.00%
system.ruby.L2Cache_Controller.M_I.Mem_Ack      5956457      0.00%      0.00%
system.ruby.L2Cache_Controller.MT_I.WB_Data         1821      0.00%      0.00%
system.ruby.L2Cache_Controller.MT_I.WB_Data_clean           83      0.00%      0.00%
system.ruby.L2Cache_Controller.MT_I.Ack_all          267      0.00%      0.00%
system.ruby.L2Cache_Controller.MT_I.MEM_Inv            2      0.00%      0.00%
system.ruby.L2Cache_Controller.MCT_I.WB_Data        19955      0.00%      0.00%
system.ruby.L2Cache_Controller.MCT_I.WB_Data_clean         9045      0.00%      0.00%
system.ruby.L2Cache_Controller.MCT_I.Ack_all         3399      0.00%      0.00%
system.ruby.L2Cache_Controller.I_I.Ack          33404      0.00%      0.00%
system.ruby.L2Cache_Controller.I_I.Ack_all        14834      0.00%      0.00%
system.ruby.L2Cache_Controller.S_I.Ack            497      0.00%      0.00%
system.ruby.L2Cache_Controller.S_I.Ack_all          398      0.00%      0.00%
system.ruby.L2Cache_Controller.ISS.Mem_Data      3260553      0.00%      0.00%
system.ruby.L2Cache_Controller.IM.Mem_Data      2713450      0.00%      0.00%
system.ruby.L2Cache_Controller.SS_MB.L1_GETS           92      0.00%      0.00%
system.ruby.L2Cache_Controller.SS_MB.L1_GETX            1      0.00%      0.00%
system.ruby.L2Cache_Controller.SS_MB.L1_UPGRADE            5      0.00%      0.00%
system.ruby.L2Cache_Controller.SS_MB.Exclusive_Unblock         8349      0.00%      0.00%
system.ruby.L2Cache_Controller.MT_MB.L1_GETS           21      0.00%      0.00%
system.ruby.L2Cache_Controller.MT_MB.L1_GETX            1      0.00%      0.00%
system.ruby.L2Cache_Controller.MT_MB.Exclusive_Unblock     31281368      0.00%      0.00%
system.ruby.L2Cache_Controller.MT_IIB.L1_GETS            1      0.00%      0.00%
system.ruby.L2Cache_Controller.MT_IIB.L1_GETX            1      0.00%      0.00%
system.ruby.L2Cache_Controller.MT_IIB.L1_PUTX            1      0.00%      0.00%
system.ruby.L2Cache_Controller.MT_IIB.WB_Data         5059      0.00%      0.00%
system.ruby.L2Cache_Controller.MT_IIB.WB_Data_clean        18947      0.00%      0.00%
system.ruby.L2Cache_Controller.MT_IIB.Unblock           48      0.00%      0.00%
system.ruby.L2Cache_Controller.MT_IB.WB_Data            9      0.00%      0.00%
system.ruby.L2Cache_Controller.MT_IB.WB_Data_clean           39      0.00%      0.00%
system.ruby.L2Cache_Controller.MT_SB.Unblock        24006      0.00%      0.00%

---------- End Simulation Statistics   ----------
