
---------- Begin Simulation Statistics ----------
sim_seconds                                  3.605734                       # Number of seconds simulated
sim_ticks                                3605734370500                       # Number of ticks simulated
final_tick                               56046664911001                       # Number of ticks from beginning of simulation (restored from checkpoints and never reset)
sim_freq                                 1000000000000                       # Frequency of simulated ticks
host_inst_rate                                 150076                       # Simulator instruction rate (inst/s)
host_op_rate                                   255592                       # Simulator op (including micro ops) rate (op/s)
host_tick_rate                              267763460                       # Simulator tick rate (ticks/s)
host_mem_usage                                1894392                       # Number of bytes of host memory used
host_seconds                                 13466.12                       # Real time elapsed on the host
sim_insts                                  2020937617                       # Number of instructions simulated
sim_ops                                    3441832042                       # Number of ops (including micro ops) simulated
system.voltage_domain.voltage                       1                       # Voltage in Volts
system.clk_domain.clock                          1000                       # Clock period in ticks
system.mem_ctrls.bytes_read::ruby.dir_cntrl0      1532864                       # Number of bytes read from this memory
system.mem_ctrls.bytes_read::total            1532864                       # Number of bytes read from this memory
system.mem_ctrls.bytes_written::ruby.dir_cntrl0       639680                       # Number of bytes written to this memory
system.mem_ctrls.bytes_written::total          639680                       # Number of bytes written to this memory
system.mem_ctrls.num_reads::ruby.dir_cntrl0        23951                       # Number of read requests responded to by this memory
system.mem_ctrls.num_reads::total               23951                       # Number of read requests responded to by this memory
system.mem_ctrls.num_writes::ruby.dir_cntrl0         9995                       # Number of write requests responded to by this memory
system.mem_ctrls.num_writes::total               9995                       # Number of write requests responded to by this memory
system.mem_ctrls.bw_read::ruby.dir_cntrl0       425118                       # Total read bandwidth from this memory (bytes/s)
system.mem_ctrls.bw_read::total                425118                       # Total read bandwidth from this memory (bytes/s)
system.mem_ctrls.bw_write::ruby.dir_cntrl0       177406                       # Write bandwidth from this memory (bytes/s)
system.mem_ctrls.bw_write::total               177406                       # Write bandwidth from this memory (bytes/s)
system.mem_ctrls.bw_total::ruby.dir_cntrl0       602525                       # Total bandwidth to/from this memory (bytes/s)
system.mem_ctrls.bw_total::total               602525                       # Total bandwidth to/from this memory (bytes/s)
system.mem_ctrls.readReqs                       23951                       # Number of read requests accepted
system.mem_ctrls.writeReqs                       9995                       # Number of write requests accepted
system.mem_ctrls.readBursts                     23951                       # Number of DRAM read bursts, including those serviced by the write queue
system.mem_ctrls.writeBursts                     9995                       # Number of DRAM write bursts, including those merged in the write queue
system.mem_ctrls.bytesReadDRAM                1528768                       # Total number of bytes read from DRAM
system.mem_ctrls.bytesReadWrQ                    4096                       # Total number of bytes read from write queue
system.mem_ctrls.bytesWritten                  639040                       # Total number of bytes written to DRAM
system.mem_ctrls.bytesReadSys                 1532864                       # Total read bytes from the system interface side
system.mem_ctrls.bytesWrittenSys               639680                       # Total written bytes from the system interface side
system.mem_ctrls.servicedByWrQ                     64                       # Number of DRAM read bursts serviced by the write queue
system.mem_ctrls.mergedWrBursts                     2                       # Number of DRAM write bursts merged with an existing one
system.mem_ctrls.neitherReadNorWriteReqs            0                       # Number of requests that are neither read nor write
system.mem_ctrls.perBankRdBursts::0              1886                       # Per bank write bursts
system.mem_ctrls.perBankRdBursts::1              1299                       # Per bank write bursts
system.mem_ctrls.perBankRdBursts::2              1236                       # Per bank write bursts
system.mem_ctrls.perBankRdBursts::3              1126                       # Per bank write bursts
system.mem_ctrls.perBankRdBursts::4              1418                       # Per bank write bursts
system.mem_ctrls.perBankRdBursts::5              1563                       # Per bank write bursts
system.mem_ctrls.perBankRdBursts::6              1854                       # Per bank write bursts
system.mem_ctrls.perBankRdBursts::7              2245                       # Per bank write bursts
system.mem_ctrls.perBankRdBursts::8              1259                       # Per bank write bursts
system.mem_ctrls.perBankRdBursts::9              1078                       # Per bank write bursts
system.mem_ctrls.perBankRdBursts::10             1307                       # Per bank write bursts
system.mem_ctrls.perBankRdBursts::11             1194                       # Per bank write bursts
system.mem_ctrls.perBankRdBursts::12             1309                       # Per bank write bursts
system.mem_ctrls.perBankRdBursts::13             1708                       # Per bank write bursts
system.mem_ctrls.perBankRdBursts::14             1874                       # Per bank write bursts
system.mem_ctrls.perBankRdBursts::15             1531                       # Per bank write bursts
system.mem_ctrls.perBankWrBursts::0               887                       # Per bank write bursts
system.mem_ctrls.perBankWrBursts::1               655                       # Per bank write bursts
system.mem_ctrls.perBankWrBursts::2               658                       # Per bank write bursts
system.mem_ctrls.perBankWrBursts::3               544                       # Per bank write bursts
system.mem_ctrls.perBankWrBursts::4               809                       # Per bank write bursts
system.mem_ctrls.perBankWrBursts::5               705                       # Per bank write bursts
system.mem_ctrls.perBankWrBursts::6               820                       # Per bank write bursts
system.mem_ctrls.perBankWrBursts::7               940                       # Per bank write bursts
system.mem_ctrls.perBankWrBursts::8               481                       # Per bank write bursts
system.mem_ctrls.perBankWrBursts::9               285                       # Per bank write bursts
system.mem_ctrls.perBankWrBursts::10              478                       # Per bank write bursts
system.mem_ctrls.perBankWrBursts::11              271                       # Per bank write bursts
system.mem_ctrls.perBankWrBursts::12              435                       # Per bank write bursts
system.mem_ctrls.perBankWrBursts::13              631                       # Per bank write bursts
system.mem_ctrls.perBankWrBursts::14              880                       # Per bank write bursts
system.mem_ctrls.perBankWrBursts::15              506                       # Per bank write bursts
system.mem_ctrls.numRdRetry                         0                       # Number of times read queue was full causing retry
system.mem_ctrls.numWrRetry                         0                       # Number of times write queue was full causing retry
system.mem_ctrls.totGap                  3605734497500                       # Total gap between requests
system.mem_ctrls.readPktSize::0                     0                       # Read request sizes (log2)
system.mem_ctrls.readPktSize::1                     0                       # Read request sizes (log2)
system.mem_ctrls.readPktSize::2                     0                       # Read request sizes (log2)
system.mem_ctrls.readPktSize::3                     0                       # Read request sizes (log2)
system.mem_ctrls.readPktSize::4                     0                       # Read request sizes (log2)
system.mem_ctrls.readPktSize::5                     0                       # Read request sizes (log2)
system.mem_ctrls.readPktSize::6                 23951                       # Read request sizes (log2)
system.mem_ctrls.writePktSize::0                    0                       # Write request sizes (log2)
system.mem_ctrls.writePktSize::1                    0                       # Write request sizes (log2)
system.mem_ctrls.writePktSize::2                    0                       # Write request sizes (log2)
system.mem_ctrls.writePktSize::3                    0                       # Write request sizes (log2)
system.mem_ctrls.writePktSize::4                    0                       # Write request sizes (log2)
system.mem_ctrls.writePktSize::5                    0                       # Write request sizes (log2)
system.mem_ctrls.writePktSize::6                 9995                       # Write request sizes (log2)
system.mem_ctrls.rdQLenPdf::0                   23677                       # What read queue length does an incoming req see
system.mem_ctrls.rdQLenPdf::1                     199                       # What read queue length does an incoming req see
system.mem_ctrls.rdQLenPdf::2                      11                       # What read queue length does an incoming req see
system.mem_ctrls.rdQLenPdf::3                       0                       # What read queue length does an incoming req see
system.mem_ctrls.rdQLenPdf::4                       0                       # What read queue length does an incoming req see
system.mem_ctrls.rdQLenPdf::5                       0                       # What read queue length does an incoming req see
system.mem_ctrls.rdQLenPdf::6                       0                       # What read queue length does an incoming req see
system.mem_ctrls.rdQLenPdf::7                       0                       # What read queue length does an incoming req see
system.mem_ctrls.rdQLenPdf::8                       0                       # What read queue length does an incoming req see
system.mem_ctrls.rdQLenPdf::9                       0                       # What read queue length does an incoming req see
system.mem_ctrls.rdQLenPdf::10                      0                       # What read queue length does an incoming req see
system.mem_ctrls.rdQLenPdf::11                      0                       # What read queue length does an incoming req see
system.mem_ctrls.rdQLenPdf::12                      0                       # What read queue length does an incoming req see
system.mem_ctrls.rdQLenPdf::13                      0                       # What read queue length does an incoming req see
system.mem_ctrls.rdQLenPdf::14                      0                       # What read queue length does an incoming req see
system.mem_ctrls.rdQLenPdf::15                      0                       # What read queue length does an incoming req see
system.mem_ctrls.rdQLenPdf::16                      0                       # What read queue length does an incoming req see
system.mem_ctrls.rdQLenPdf::17                      0                       # What read queue length does an incoming req see
system.mem_ctrls.rdQLenPdf::18                      0                       # What read queue length does an incoming req see
system.mem_ctrls.rdQLenPdf::19                      0                       # What read queue length does an incoming req see
system.mem_ctrls.rdQLenPdf::20                      0                       # What read queue length does an incoming req see
system.mem_ctrls.rdQLenPdf::21                      0                       # What read queue length does an incoming req see
system.mem_ctrls.rdQLenPdf::22                      0                       # What read queue length does an incoming req see
system.mem_ctrls.rdQLenPdf::23                      0                       # What read queue length does an incoming req see
system.mem_ctrls.rdQLenPdf::24                      0                       # What read queue length does an incoming req see
system.mem_ctrls.rdQLenPdf::25                      0                       # What read queue length does an incoming req see
system.mem_ctrls.rdQLenPdf::26                      0                       # What read queue length does an incoming req see
system.mem_ctrls.rdQLenPdf::27                      0                       # What read queue length does an incoming req see
system.mem_ctrls.rdQLenPdf::28                      0                       # What read queue length does an incoming req see
system.mem_ctrls.rdQLenPdf::29                      0                       # What read queue length does an incoming req see
system.mem_ctrls.rdQLenPdf::30                      0                       # What read queue length does an incoming req see
system.mem_ctrls.rdQLenPdf::31                      0                       # What read queue length does an incoming req see
system.mem_ctrls.wrQLenPdf::0                       0                       # What write queue length does an incoming req see
system.mem_ctrls.wrQLenPdf::1                       0                       # What write queue length does an incoming req see
system.mem_ctrls.wrQLenPdf::2                       0                       # What write queue length does an incoming req see
system.mem_ctrls.wrQLenPdf::3                       0                       # What write queue length does an incoming req see
system.mem_ctrls.wrQLenPdf::4                       0                       # What write queue length does an incoming req see
system.mem_ctrls.wrQLenPdf::5                       0                       # What write queue length does an incoming req see
system.mem_ctrls.wrQLenPdf::6                       0                       # What write queue length does an incoming req see
system.mem_ctrls.wrQLenPdf::7                       0                       # What write queue length does an incoming req see
system.mem_ctrls.wrQLenPdf::8                       0                       # What write queue length does an incoming req see
system.mem_ctrls.wrQLenPdf::9                       0                       # What write queue length does an incoming req see
system.mem_ctrls.wrQLenPdf::10                      0                       # What write queue length does an incoming req see
system.mem_ctrls.wrQLenPdf::11                      0                       # What write queue length does an incoming req see
system.mem_ctrls.wrQLenPdf::12                      0                       # What write queue length does an incoming req see
system.mem_ctrls.wrQLenPdf::13                      0                       # What write queue length does an incoming req see
system.mem_ctrls.wrQLenPdf::14                      0                       # What write queue length does an incoming req see
system.mem_ctrls.wrQLenPdf::15                    334                       # What write queue length does an incoming req see
system.mem_ctrls.wrQLenPdf::16                    400                       # What write queue length does an incoming req see
system.mem_ctrls.wrQLenPdf::17                    503                       # What write queue length does an incoming req see
system.mem_ctrls.wrQLenPdf::18                    568                       # What write queue length does an incoming req see
system.mem_ctrls.wrQLenPdf::19                    527                       # What write queue length does an incoming req see
system.mem_ctrls.wrQLenPdf::20                    598                       # What write queue length does an incoming req see
system.mem_ctrls.wrQLenPdf::21                    547                       # What write queue length does an incoming req see
system.mem_ctrls.wrQLenPdf::22                    608                       # What write queue length does an incoming req see
system.mem_ctrls.wrQLenPdf::23                    552                       # What write queue length does an incoming req see
system.mem_ctrls.wrQLenPdf::24                    640                       # What write queue length does an incoming req see
system.mem_ctrls.wrQLenPdf::25                    574                       # What write queue length does an incoming req see
system.mem_ctrls.wrQLenPdf::26                    614                       # What write queue length does an incoming req see
system.mem_ctrls.wrQLenPdf::27                    565                       # What write queue length does an incoming req see
system.mem_ctrls.wrQLenPdf::28                    592                       # What write queue length does an incoming req see
system.mem_ctrls.wrQLenPdf::29                    544                       # What write queue length does an incoming req see
system.mem_ctrls.wrQLenPdf::30                    560                       # What write queue length does an incoming req see
system.mem_ctrls.wrQLenPdf::31                    536                       # What write queue length does an incoming req see
system.mem_ctrls.wrQLenPdf::32                    535                       # What write queue length does an incoming req see
system.mem_ctrls.wrQLenPdf::33                     19                       # What write queue length does an incoming req see
system.mem_ctrls.wrQLenPdf::34                     25                       # What write queue length does an incoming req see
system.mem_ctrls.wrQLenPdf::35                     17                       # What write queue length does an incoming req see
system.mem_ctrls.wrQLenPdf::36                     18                       # What write queue length does an incoming req see
system.mem_ctrls.wrQLenPdf::37                     14                       # What write queue length does an incoming req see
system.mem_ctrls.wrQLenPdf::38                     17                       # What write queue length does an incoming req see
system.mem_ctrls.wrQLenPdf::39                     13                       # What write queue length does an incoming req see
system.mem_ctrls.wrQLenPdf::40                     13                       # What write queue length does an incoming req see
system.mem_ctrls.wrQLenPdf::41                     11                       # What write queue length does an incoming req see
system.mem_ctrls.wrQLenPdf::42                     12                       # What write queue length does an incoming req see
system.mem_ctrls.wrQLenPdf::43                     10                       # What write queue length does an incoming req see
system.mem_ctrls.wrQLenPdf::44                     10                       # What write queue length does an incoming req see
system.mem_ctrls.wrQLenPdf::45                      6                       # What write queue length does an incoming req see
system.mem_ctrls.wrQLenPdf::46                      7                       # What write queue length does an incoming req see
system.mem_ctrls.wrQLenPdf::47                      2                       # What write queue length does an incoming req see
system.mem_ctrls.wrQLenPdf::48                      1                       # What write queue length does an incoming req see
system.mem_ctrls.wrQLenPdf::49                      1                       # What write queue length does an incoming req see
system.mem_ctrls.wrQLenPdf::50                      0                       # What write queue length does an incoming req see
system.mem_ctrls.wrQLenPdf::51                      0                       # What write queue length does an incoming req see
system.mem_ctrls.wrQLenPdf::52                      0                       # What write queue length does an incoming req see
system.mem_ctrls.wrQLenPdf::53                      0                       # What write queue length does an incoming req see
system.mem_ctrls.wrQLenPdf::54                      0                       # What write queue length does an incoming req see
system.mem_ctrls.wrQLenPdf::55                      0                       # What write queue length does an incoming req see
system.mem_ctrls.wrQLenPdf::56                      0                       # What write queue length does an incoming req see
system.mem_ctrls.wrQLenPdf::57                      0                       # What write queue length does an incoming req see
system.mem_ctrls.wrQLenPdf::58                      0                       # What write queue length does an incoming req see
system.mem_ctrls.wrQLenPdf::59                      0                       # What write queue length does an incoming req see
system.mem_ctrls.wrQLenPdf::60                      0                       # What write queue length does an incoming req see
system.mem_ctrls.wrQLenPdf::61                      0                       # What write queue length does an incoming req see
system.mem_ctrls.wrQLenPdf::62                      0                       # What write queue length does an incoming req see
system.mem_ctrls.wrQLenPdf::63                      0                       # What write queue length does an incoming req see
system.mem_ctrls.bytesPerActivate::samples        11092                       # Bytes accessed per row activation
system.mem_ctrls.bytesPerActivate::mean    195.421565                       # Bytes accessed per row activation
system.mem_ctrls.bytesPerActivate::gmean   119.334385                       # Bytes accessed per row activation
system.mem_ctrls.bytesPerActivate::stdev   260.963016                       # Bytes accessed per row activation
system.mem_ctrls.bytesPerActivate::0-127         6050     54.54%     54.54% # Bytes accessed per row activation
system.mem_ctrls.bytesPerActivate::128-255         2904     26.18%     80.72% # Bytes accessed per row activation
system.mem_ctrls.bytesPerActivate::256-383          691      6.23%     86.95% # Bytes accessed per row activation
system.mem_ctrls.bytesPerActivate::384-511          288      2.60%     89.55% # Bytes accessed per row activation
system.mem_ctrls.bytesPerActivate::512-639          147      1.33%     90.88% # Bytes accessed per row activation
system.mem_ctrls.bytesPerActivate::640-767          113      1.02%     91.90% # Bytes accessed per row activation
system.mem_ctrls.bytesPerActivate::768-895           91      0.82%     92.72% # Bytes accessed per row activation
system.mem_ctrls.bytesPerActivate::896-1023           61      0.55%     93.27% # Bytes accessed per row activation
system.mem_ctrls.bytesPerActivate::1024-1151          747      6.73%    100.00% # Bytes accessed per row activation
system.mem_ctrls.bytesPerActivate::total        11092                       # Bytes accessed per row activation
system.mem_ctrls.rdPerTurnAround::samples          512                       # Reads before turning the bus around for writes
system.mem_ctrls.rdPerTurnAround::mean      46.996094                       # Reads before turning the bus around for writes
system.mem_ctrls.rdPerTurnAround::stdev     73.599806                       # Reads before turning the bus around for writes
system.mem_ctrls.rdPerTurnAround::0-31            295     57.62%     57.62% # Reads before turning the bus around for writes
system.mem_ctrls.rdPerTurnAround::32-63            91     17.77%     75.39% # Reads before turning the bus around for writes
system.mem_ctrls.rdPerTurnAround::64-95            58     11.33%     86.72% # Reads before turning the bus around for writes
system.mem_ctrls.rdPerTurnAround::96-127           29      5.66%     92.38% # Reads before turning the bus around for writes
system.mem_ctrls.rdPerTurnAround::128-159            9      1.76%     94.14% # Reads before turning the bus around for writes
system.mem_ctrls.rdPerTurnAround::160-191            4      0.78%     94.92% # Reads before turning the bus around for writes
system.mem_ctrls.rdPerTurnAround::192-223            4      0.78%     95.70% # Reads before turning the bus around for writes
system.mem_ctrls.rdPerTurnAround::224-255            8      1.56%     97.27% # Reads before turning the bus around for writes
system.mem_ctrls.rdPerTurnAround::256-287            4      0.78%     98.05% # Reads before turning the bus around for writes
system.mem_ctrls.rdPerTurnAround::288-319            3      0.59%     98.63% # Reads before turning the bus around for writes
system.mem_ctrls.rdPerTurnAround::320-351            4      0.78%     99.41% # Reads before turning the bus around for writes
system.mem_ctrls.rdPerTurnAround::352-383            1      0.20%     99.61% # Reads before turning the bus around for writes
system.mem_ctrls.rdPerTurnAround::416-447            1      0.20%     99.80% # Reads before turning the bus around for writes
system.mem_ctrls.rdPerTurnAround::832-863            1      0.20%    100.00% # Reads before turning the bus around for writes
system.mem_ctrls.rdPerTurnAround::total           512                       # Reads before turning the bus around for writes
system.mem_ctrls.wrPerTurnAround::samples          512                       # Writes before turning the bus around for reads
system.mem_ctrls.wrPerTurnAround::mean      19.501953                       # Writes before turning the bus around for reads
system.mem_ctrls.wrPerTurnAround::gmean     18.859308                       # Writes before turning the bus around for reads
system.mem_ctrls.wrPerTurnAround::stdev      6.397467                       # Writes before turning the bus around for reads
system.mem_ctrls.wrPerTurnAround::16-17           172     33.59%     33.59% # Writes before turning the bus around for reads
system.mem_ctrls.wrPerTurnAround::18-19           255     49.80%     83.40% # Writes before turning the bus around for reads
system.mem_ctrls.wrPerTurnAround::20-21            12      2.34%     85.74% # Writes before turning the bus around for reads
system.mem_ctrls.wrPerTurnAround::22-23            11      2.15%     87.89% # Writes before turning the bus around for reads
system.mem_ctrls.wrPerTurnAround::24-25             6      1.17%     89.06% # Writes before turning the bus around for reads
system.mem_ctrls.wrPerTurnAround::26-27             7      1.37%     90.43% # Writes before turning the bus around for reads
system.mem_ctrls.wrPerTurnAround::28-29            12      2.34%     92.77% # Writes before turning the bus around for reads
system.mem_ctrls.wrPerTurnAround::30-31             3      0.59%     93.36% # Writes before turning the bus around for reads
system.mem_ctrls.wrPerTurnAround::32-33             2      0.39%     93.75% # Writes before turning the bus around for reads
system.mem_ctrls.wrPerTurnAround::34-35            26      5.08%     98.83% # Writes before turning the bus around for reads
system.mem_ctrls.wrPerTurnAround::46-47             1      0.20%     99.02% # Writes before turning the bus around for reads
system.mem_ctrls.wrPerTurnAround::56-57             1      0.20%     99.22% # Writes before turning the bus around for reads
system.mem_ctrls.wrPerTurnAround::62-63             1      0.20%     99.41% # Writes before turning the bus around for reads
system.mem_ctrls.wrPerTurnAround::64-65             3      0.59%    100.00% # Writes before turning the bus around for reads
system.mem_ctrls.wrPerTurnAround::total           512                       # Writes before turning the bus around for reads
system.mem_ctrls.totQLat                    203581249                       # Total ticks spent queuing
system.mem_ctrls.totMemAccLat               651462499                       # Total ticks spent from burst creation until serviced by the DRAM
system.mem_ctrls.totBusLat                  119435000                       # Total ticks spent in databus transfers
system.mem_ctrls.avgQLat                      8522.68                       # Average queueing delay per DRAM burst
system.mem_ctrls.avgBusLat                    5000.00                       # Average bus latency per DRAM burst
system.mem_ctrls.avgMemAccLat                27272.68                       # Average memory access latency per DRAM burst
system.mem_ctrls.avgRdBW                         0.42                       # Average DRAM read bandwidth in MiByte/s
system.mem_ctrls.avgWrBW                         0.18                       # Average achieved write bandwidth in MiByte/s
system.mem_ctrls.avgRdBWSys                      0.43                       # Average system read bandwidth in MiByte/s
system.mem_ctrls.avgWrBWSys                      0.18                       # Average system write bandwidth in MiByte/s
system.mem_ctrls.peakBW                      12800.00                       # Theoretical peak bandwidth in MiByte/s
system.mem_ctrls.busUtil                         0.00                       # Data bus utilization in percentage
system.mem_ctrls.busUtilRead                     0.00                       # Data bus utilization in percentage for reads
system.mem_ctrls.busUtilWrite                    0.00                       # Data bus utilization in percentage for writes
system.mem_ctrls.avgRdQLen                       1.00                       # Average read queue length when enqueuing
system.mem_ctrls.avgWrQLen                      25.23                       # Average write queue length when enqueuing
system.mem_ctrls.readRowHits                    17512                       # Number of row buffer hits during reads
system.mem_ctrls.writeRowHits                    5267                       # Number of row buffer hits during writes
system.mem_ctrls.readRowHitRate                 73.31                       # Row buffer hit rate for reads
system.mem_ctrls.writeRowHitRate                52.71                       # Row buffer hit rate for writes
system.mem_ctrls.avgGap                  106219716.54                       # Average gap between requests
system.mem_ctrls.pageHitRate                    67.23                       # Row buffer hit rate, read and write combined
system.mem_ctrls_0.actEnergy                 60064200                       # Energy for activate commands per rank (pJ)
system.mem_ctrls_0.preEnergy                 32773125                       # Energy for precharge commands per rank (pJ)
system.mem_ctrls_0.readEnergy               159868800                       # Energy for read commands per rank (pJ)
system.mem_ctrls_0.writeEnergy               39288240                       # Energy for write commands per rank (pJ)
system.mem_ctrls_0.refreshEnergy         235744005120                       # Energy for refresh commands per rank (pJ)
system.mem_ctrls_0.actBackEnergy          83024296200                       # Energy for active background per rank (pJ)
system.mem_ctrls_0.preBackEnergy         2092770882000                       # Energy for precharge background per rank (pJ)
system.mem_ctrls_0.totalEnergy           2411831177685                       # Total energy per rank (pJ)
system.mem_ctrls_0.averagePower            668.220924                       # Core power per rank (mW)
system.mem_ctrls_0.memoryStateTime::IDLE 3480230088000                       # Time in different power states
system.mem_ctrls_0.memoryStateTime::REF  120403400000                       # Time in different power states
system.mem_ctrls_0.memoryStateTime::PRE_PDN            0                       # Time in different power states
system.mem_ctrls_0.memoryStateTime::ACT    5100581250                       # Time in different power states
system.mem_ctrls_0.memoryStateTime::ACT_PDN            0                       # Time in different power states
system.mem_ctrls_1.actEnergy                 55807920                       # Energy for activate commands per rank (pJ)
system.mem_ctrls_1.preEnergy                 30450750                       # Energy for precharge commands per rank (pJ)
system.mem_ctrls_1.readEnergy               159439800                       # Energy for read commands per rank (pJ)
system.mem_ctrls_1.writeEnergy               25984800                       # Energy for write commands per rank (pJ)
system.mem_ctrls_1.refreshEnergy         235744005120                       # Energy for refresh commands per rank (pJ)
system.mem_ctrls_1.actBackEnergy          83173446675                       # Energy for active background per rank (pJ)
system.mem_ctrls_1.preBackEnergy         2092640048250                       # Energy for precharge background per rank (pJ)
system.mem_ctrls_1.totalEnergy           2411829183315                       # Total energy per rank (pJ)
system.mem_ctrls_1.averagePower            668.220372                       # Core power per rank (mW)
system.mem_ctrls_1.memoryStateTime::IDLE 3480028029750                       # Time in different power states
system.mem_ctrls_1.memoryStateTime::REF  120403400000                       # Time in different power states
system.mem_ctrls_1.memoryStateTime::PRE_PDN            0                       # Time in different power states
system.mem_ctrls_1.memoryStateTime::ACT    5303082750                       # Time in different power states
system.mem_ctrls_1.memoryStateTime::ACT_PDN            0                       # Time in different power states
system.cpu_voltage_domain.voltage                   1                       # Voltage in Volts
system.cpu_clk_domain.clock                       500                       # Clock period in ticks
system.cpu0.apic_clk_domain.clock                8000                       # Clock period in ticks
system.cpu0.numCycles                      7213019863                       # number of cpu cycles simulated
system.cpu0.numWorkItemsStarted                     0                       # number of work items this cpu started
system.cpu0.numWorkItemsCompleted                   0                       # number of work items this cpu completed
system.cpu0.kern.inst.arm                           0                       # number of arm instructions executed
system.cpu0.kern.inst.quiesce                       0                       # number of quiesce instructions executed
system.cpu0.committedInsts                 1994445519                       # Number of instructions committed
system.cpu0.committedOps                   3392927506                       # Number of ops (including micro ops) committed
system.cpu0.num_int_alu_accesses           2757571959                       # Number of integer alu accesses
system.cpu0.num_fp_alu_accesses            1010088632                       # Number of float alu accesses
system.cpu0.num_func_calls                   49946878                       # number of times a function call or return occured
system.cpu0.num_conditional_control_insts    199814057                       # number of instructions that are conditional controls
system.cpu0.num_int_insts                  2757571959                       # number of integer instructions
system.cpu0.num_fp_insts                   1010088632                       # number of float instructions
system.cpu0.num_int_register_reads         5218341912                       # number of times the integer registers were read
system.cpu0.num_int_register_writes        2052611175                       # number of times the integer registers were written
system.cpu0.num_fp_register_reads          1701898935                       # number of times the floating registers were read
system.cpu0.num_fp_register_writes          899765754                       # number of times the floating registers were written
system.cpu0.num_cc_register_reads          1288638323                       # number of times the CC registers were read
system.cpu0.num_cc_register_writes         1039378045                       # number of times the CC registers were written
system.cpu0.num_mem_refs                    738245231                       # number of memory refs
system.cpu0.num_load_insts                  571809589                       # Number of load instructions
system.cpu0.num_store_insts                 166435642                       # Number of store instructions
system.cpu0.num_idle_cycles              64353223.822436                       # Number of idle cycles
system.cpu0.num_busy_cycles              7148666639.177564                       # Number of busy cycles
system.cpu0.not_idle_fraction                0.991078                       # Percentage of non-idle cycles
system.cpu0.idle_fraction                    0.008922                       # Percentage of idle cycles
system.cpu0.Branches                        261173650                       # Number of branches fetched
system.cpu0.op_class::No_OpClass              1512129      0.04%      0.04% # Class of executed instruction
system.cpu0.op_class::IntAlu               2189297205     64.53%     64.57% # Class of executed instruction
system.cpu0.op_class::IntMult                24043353      0.71%     65.28% # Class of executed instruction
system.cpu0.op_class::IntDiv                   210288      0.01%     65.28% # Class of executed instruction
system.cpu0.op_class::FloatAdd              439619455     12.96%     78.24% # Class of executed instruction
system.cpu0.op_class::FloatCmp                      0      0.00%     78.24% # Class of executed instruction
system.cpu0.op_class::FloatCvt                      0      0.00%     78.24% # Class of executed instruction
system.cpu0.op_class::FloatMult                     0      0.00%     78.24% # Class of executed instruction
system.cpu0.op_class::FloatDiv                      0      0.00%     78.24% # Class of executed instruction
system.cpu0.op_class::FloatSqrt                     0      0.00%     78.24% # Class of executed instruction
system.cpu0.op_class::SimdAdd                       0      0.00%     78.24% # Class of executed instruction
system.cpu0.op_class::SimdAddAcc                    0      0.00%     78.24% # Class of executed instruction
system.cpu0.op_class::SimdAlu                       0      0.00%     78.24% # Class of executed instruction
system.cpu0.op_class::SimdCmp                       0      0.00%     78.24% # Class of executed instruction
system.cpu0.op_class::SimdCvt                       0      0.00%     78.24% # Class of executed instruction
system.cpu0.op_class::SimdMisc                      0      0.00%     78.24% # Class of executed instruction
system.cpu0.op_class::SimdMult                      0      0.00%     78.24% # Class of executed instruction
system.cpu0.op_class::SimdMultAcc                   0      0.00%     78.24% # Class of executed instruction
system.cpu0.op_class::SimdShift                     0      0.00%     78.24% # Class of executed instruction
system.cpu0.op_class::SimdShiftAcc                  0      0.00%     78.24% # Class of executed instruction
system.cpu0.op_class::SimdSqrt                      0      0.00%     78.24% # Class of executed instruction
system.cpu0.op_class::SimdFloatAdd                  0      0.00%     78.24% # Class of executed instruction
system.cpu0.op_class::SimdFloatAlu                  0      0.00%     78.24% # Class of executed instruction
system.cpu0.op_class::SimdFloatCmp                  0      0.00%     78.24% # Class of executed instruction
system.cpu0.op_class::SimdFloatCvt                  0      0.00%     78.24% # Class of executed instruction
system.cpu0.op_class::SimdFloatDiv                  0      0.00%     78.24% # Class of executed instruction
system.cpu0.op_class::SimdFloatMisc                 0      0.00%     78.24% # Class of executed instruction
system.cpu0.op_class::SimdFloatMult                 0      0.00%     78.24% # Class of executed instruction
system.cpu0.op_class::SimdFloatMultAcc              0      0.00%     78.24% # Class of executed instruction
system.cpu0.op_class::SimdFloatSqrt                 0      0.00%     78.24% # Class of executed instruction
system.cpu0.op_class::MemRead               571809589     16.85%     95.09% # Class of executed instruction
system.cpu0.op_class::MemWrite              166435642      4.91%    100.00% # Class of executed instruction
system.cpu0.op_class::IprAccess                     0      0.00%    100.00% # Class of executed instruction
system.cpu0.op_class::InstPrefetch                  0      0.00%    100.00% # Class of executed instruction
system.cpu0.op_class::total                3392927661                       # Class of executed instruction
system.cpu1.apic_clk_domain.clock                8000                       # Clock period in ticks
system.cpu1.numCycles                      7213432267                       # number of cpu cycles simulated
system.cpu1.numWorkItemsStarted                     0                       # number of work items this cpu started
system.cpu1.numWorkItemsCompleted                   0                       # number of work items this cpu completed
system.cpu1.kern.inst.arm                           0                       # number of arm instructions executed
system.cpu1.kern.inst.quiesce                       0                       # number of quiesce instructions executed
system.cpu1.committedInsts                    2718981                       # Number of instructions committed
system.cpu1.committedOps                      5824376                       # Number of ops (including micro ops) committed
system.cpu1.num_int_alu_accesses              5699543                       # Number of integer alu accesses
system.cpu1.num_fp_alu_accesses                    65                       # Number of float alu accesses
system.cpu1.num_func_calls                     158509                       # number of times a function call or return occured
system.cpu1.num_conditional_control_insts       418610                       # number of instructions that are conditional controls
system.cpu1.num_int_insts                     5699543                       # number of integer instructions
system.cpu1.num_fp_insts                           65                       # number of float instructions
system.cpu1.num_int_register_reads           11549570                       # number of times the integer registers were read
system.cpu1.num_int_register_writes           4724491                       # number of times the integer registers were written
system.cpu1.num_fp_register_reads                  82                       # number of times the floating registers were read
system.cpu1.num_fp_register_writes                 44                       # number of times the floating registers were written
system.cpu1.num_cc_register_reads             3321325                       # number of times the CC registers were read
system.cpu1.num_cc_register_writes            1745853                       # number of times the CC registers were written
system.cpu1.num_mem_refs                      1373588                       # number of memory refs
system.cpu1.num_load_insts                     853995                       # Number of load instructions
system.cpu1.num_store_insts                    519593                       # Number of store instructions
system.cpu1.num_idle_cycles              7201770571.638452                       # Number of idle cycles
system.cpu1.num_busy_cycles              11661695.361549                       # Number of busy cycles
system.cpu1.not_idle_fraction                0.001617                       # Percentage of non-idle cycles
system.cpu1.idle_fraction                    0.998383                       # Percentage of idle cycles
system.cpu1.Branches                           628562                       # Number of branches fetched
system.cpu1.op_class::No_OpClass               105569      1.81%      1.81% # Class of executed instruction
system.cpu1.op_class::IntAlu                  4295536     73.75%     75.56% # Class of executed instruction
system.cpu1.op_class::IntMult                   11634      0.20%     75.76% # Class of executed instruction
system.cpu1.op_class::IntDiv                    38047      0.65%     76.42% # Class of executed instruction
system.cpu1.op_class::FloatAdd                     22      0.00%     76.42% # Class of executed instruction
system.cpu1.op_class::FloatCmp                      0      0.00%     76.42% # Class of executed instruction
system.cpu1.op_class::FloatCvt                      0      0.00%     76.42% # Class of executed instruction
system.cpu1.op_class::FloatMult                     0      0.00%     76.42% # Class of executed instruction
system.cpu1.op_class::FloatDiv                      0      0.00%     76.42% # Class of executed instruction
system.cpu1.op_class::FloatSqrt                     0      0.00%     76.42% # Class of executed instruction
system.cpu1.op_class::SimdAdd                       0      0.00%     76.42% # Class of executed instruction
system.cpu1.op_class::SimdAddAcc                    0      0.00%     76.42% # Class of executed instruction
system.cpu1.op_class::SimdAlu                       0      0.00%     76.42% # Class of executed instruction
system.cpu1.op_class::SimdCmp                       0      0.00%     76.42% # Class of executed instruction
system.cpu1.op_class::SimdCvt                       0      0.00%     76.42% # Class of executed instruction
system.cpu1.op_class::SimdMisc                      0      0.00%     76.42% # Class of executed instruction
system.cpu1.op_class::SimdMult                      0      0.00%     76.42% # Class of executed instruction
system.cpu1.op_class::SimdMultAcc                   0      0.00%     76.42% # Class of executed instruction
system.cpu1.op_class::SimdShift                     0      0.00%     76.42% # Class of executed instruction
system.cpu1.op_class::SimdShiftAcc                  0      0.00%     76.42% # Class of executed instruction
system.cpu1.op_class::SimdSqrt                      0      0.00%     76.42% # Class of executed instruction
system.cpu1.op_class::SimdFloatAdd                  0      0.00%     76.42% # Class of executed instruction
system.cpu1.op_class::SimdFloatAlu                  0      0.00%     76.42% # Class of executed instruction
system.cpu1.op_class::SimdFloatCmp                  0      0.00%     76.42% # Class of executed instruction
system.cpu1.op_class::SimdFloatCvt                  0      0.00%     76.42% # Class of executed instruction
system.cpu1.op_class::SimdFloatDiv                  0      0.00%     76.42% # Class of executed instruction
system.cpu1.op_class::SimdFloatMisc                 0      0.00%     76.42% # Class of executed instruction
system.cpu1.op_class::SimdFloatMult                 0      0.00%     76.42% # Class of executed instruction
system.cpu1.op_class::SimdFloatMultAcc              0      0.00%     76.42% # Class of executed instruction
system.cpu1.op_class::SimdFloatSqrt                 0      0.00%     76.42% # Class of executed instruction
system.cpu1.op_class::MemRead                  853995     14.66%     91.08% # Class of executed instruction
system.cpu1.op_class::MemWrite                 519593      8.92%    100.00% # Class of executed instruction
system.cpu1.op_class::IprAccess                     0      0.00%    100.00% # Class of executed instruction
system.cpu1.op_class::InstPrefetch                  0      0.00%    100.00% # Class of executed instruction
system.cpu1.op_class::total                   5824396                       # Class of executed instruction
system.cpu2.apic_clk_domain.clock                8000                       # Clock period in ticks
system.cpu2.numCycles                      7210971496                       # number of cpu cycles simulated
system.cpu2.numWorkItemsStarted                     0                       # number of work items this cpu started
system.cpu2.numWorkItemsCompleted                   0                       # number of work items this cpu completed
system.cpu2.kern.inst.arm                           0                       # number of arm instructions executed
system.cpu2.kern.inst.quiesce                       0                       # number of quiesce instructions executed
system.cpu2.committedInsts                    3279389                       # Number of instructions committed
system.cpu2.committedOps                      6835404                       # Number of ops (including micro ops) committed
system.cpu2.num_int_alu_accesses              6699296                       # Number of integer alu accesses
system.cpu2.num_fp_alu_accesses                  1837                       # Number of float alu accesses
system.cpu2.num_func_calls                     173796                       # number of times a function call or return occured
system.cpu2.num_conditional_control_insts       507446                       # number of instructions that are conditional controls
system.cpu2.num_int_insts                     6699296                       # number of integer instructions
system.cpu2.num_fp_insts                         1837                       # number of float instructions
system.cpu2.num_int_register_reads           13591905                       # number of times the integer registers were read
system.cpu2.num_int_register_writes           5533268                       # number of times the integer registers were written
system.cpu2.num_fp_register_reads                3081                       # number of times the floating registers were read
system.cpu2.num_fp_register_writes               1457                       # number of times the floating registers were written
system.cpu2.num_cc_register_reads             3899712                       # number of times the CC registers were read
system.cpu2.num_cc_register_writes            2111759                       # number of times the CC registers were written
system.cpu2.num_mem_refs                      1597911                       # number of memory refs
system.cpu2.num_load_insts                     990990                       # Number of load instructions
system.cpu2.num_store_insts                    606921                       # Number of store instructions
system.cpu2.num_idle_cycles              7196874319.099197                       # Number of idle cycles
system.cpu2.num_busy_cycles              14097176.900803                       # Number of busy cycles
system.cpu2.not_idle_fraction                0.001955                       # Percentage of non-idle cycles
system.cpu2.idle_fraction                    0.998045                       # Percentage of idle cycles
system.cpu2.Branches                           740281                       # Number of branches fetched
system.cpu2.op_class::No_OpClass               111325      1.63%      1.63% # Class of executed instruction
system.cpu2.op_class::IntAlu                  5073035     74.22%     75.84% # Class of executed instruction
system.cpu2.op_class::IntMult                   12374      0.18%     76.03% # Class of executed instruction
system.cpu2.op_class::IntDiv                    39481      0.58%     76.60% # Class of executed instruction
system.cpu2.op_class::FloatAdd                   1366      0.02%     76.62% # Class of executed instruction
system.cpu2.op_class::FloatCmp                      0      0.00%     76.62% # Class of executed instruction
system.cpu2.op_class::FloatCvt                      0      0.00%     76.62% # Class of executed instruction
system.cpu2.op_class::FloatMult                     0      0.00%     76.62% # Class of executed instruction
system.cpu2.op_class::FloatDiv                      0      0.00%     76.62% # Class of executed instruction
system.cpu2.op_class::FloatSqrt                     0      0.00%     76.62% # Class of executed instruction
system.cpu2.op_class::SimdAdd                       0      0.00%     76.62% # Class of executed instruction
system.cpu2.op_class::SimdAddAcc                    0      0.00%     76.62% # Class of executed instruction
system.cpu2.op_class::SimdAlu                       0      0.00%     76.62% # Class of executed instruction
system.cpu2.op_class::SimdCmp                       0      0.00%     76.62% # Class of executed instruction
system.cpu2.op_class::SimdCvt                       0      0.00%     76.62% # Class of executed instruction
system.cpu2.op_class::SimdMisc                      0      0.00%     76.62% # Class of executed instruction
system.cpu2.op_class::SimdMult                      0      0.00%     76.62% # Class of executed instruction
system.cpu2.op_class::SimdMultAcc                   0      0.00%     76.62% # Class of executed instruction
system.cpu2.op_class::SimdShift                     0      0.00%     76.62% # Class of executed instruction
system.cpu2.op_class::SimdShiftAcc                  0      0.00%     76.62% # Class of executed instruction
system.cpu2.op_class::SimdSqrt                      0      0.00%     76.62% # Class of executed instruction
system.cpu2.op_class::SimdFloatAdd                  0      0.00%     76.62% # Class of executed instruction
system.cpu2.op_class::SimdFloatAlu                  0      0.00%     76.62% # Class of executed instruction
system.cpu2.op_class::SimdFloatCmp                  0      0.00%     76.62% # Class of executed instruction
system.cpu2.op_class::SimdFloatCvt                  0      0.00%     76.62% # Class of executed instruction
system.cpu2.op_class::SimdFloatDiv                  0      0.00%     76.62% # Class of executed instruction
system.cpu2.op_class::SimdFloatMisc                 0      0.00%     76.62% # Class of executed instruction
system.cpu2.op_class::SimdFloatMult                 0      0.00%     76.62% # Class of executed instruction
system.cpu2.op_class::SimdFloatMultAcc              0      0.00%     76.62% # Class of executed instruction
system.cpu2.op_class::SimdFloatSqrt                 0      0.00%     76.62% # Class of executed instruction
system.cpu2.op_class::MemRead                  990990     14.50%     91.12% # Class of executed instruction
system.cpu2.op_class::MemWrite                 606921      8.88%    100.00% # Class of executed instruction
system.cpu2.op_class::IprAccess                     0      0.00%    100.00% # Class of executed instruction
system.cpu2.op_class::InstPrefetch                  0      0.00%    100.00% # Class of executed instruction
system.cpu2.op_class::total                   6835492                       # Class of executed instruction
system.cpu3.apic_clk_domain.clock                8000                       # Clock period in ticks
system.cpu3.numCycles                      7209854121                       # number of cpu cycles simulated
system.cpu3.numWorkItemsStarted                     0                       # number of work items this cpu started
system.cpu3.numWorkItemsCompleted                   0                       # number of work items this cpu completed
system.cpu3.kern.inst.arm                           0                       # number of arm instructions executed
system.cpu3.kern.inst.quiesce                       0                       # number of quiesce instructions executed
system.cpu3.committedInsts                   19103247                       # Number of instructions committed
system.cpu3.committedOps                     33682576                       # Number of ops (including micro ops) committed
system.cpu3.num_int_alu_accesses             28296149                       # Number of integer alu accesses
system.cpu3.num_fp_alu_accesses               8399271                       # Number of float alu accesses
system.cpu3.num_func_calls                     574935                       # number of times a function call or return occured
system.cpu3.num_conditional_control_insts      2013035                       # number of instructions that are conditional controls
system.cpu3.num_int_insts                    28296149                       # number of integer instructions
system.cpu3.num_fp_insts                      8399271                       # number of float instructions
system.cpu3.num_int_register_reads           54560565                       # number of times the integer registers were read
system.cpu3.num_int_register_writes          21500348                       # number of times the integer registers were written
system.cpu3.num_fp_register_reads            14064247                       # number of times the floating registers were read
system.cpu3.num_fp_register_writes            7474237                       # number of times the floating registers were written
system.cpu3.num_cc_register_reads            13703950                       # number of times the CC registers were read
system.cpu3.num_cc_register_writes           10137009                       # number of times the CC registers were written
system.cpu3.num_mem_refs                      7544668                       # number of memory refs
system.cpu3.num_load_insts                    5635177                       # Number of load instructions
system.cpu3.num_store_insts                   1909491                       # Number of store instructions
system.cpu3.num_idle_cycles              7138907183.310697                       # Number of idle cycles
system.cpu3.num_busy_cycles              70946937.689303                       # Number of busy cycles
system.cpu3.not_idle_fraction                0.009840                       # Percentage of non-idle cycles
system.cpu3.idle_fraction                    0.990160                       # Percentage of idle cycles
system.cpu3.Branches                          2736002                       # Number of branches fetched
system.cpu3.op_class::No_OpClass               117839      0.35%      0.35% # Class of executed instruction
system.cpu3.op_class::IntAlu                 22149564     65.76%     66.11% # Class of executed instruction
system.cpu3.op_class::IntMult                  212582      0.63%     66.74% # Class of executed instruction
system.cpu3.op_class::IntDiv                    39769      0.12%     66.86% # Class of executed instruction
system.cpu3.op_class::FloatAdd                3618197     10.74%     77.60% # Class of executed instruction
system.cpu3.op_class::FloatCmp                      0      0.00%     77.60% # Class of executed instruction
system.cpu3.op_class::FloatCvt                      0      0.00%     77.60% # Class of executed instruction
system.cpu3.op_class::FloatMult                     0      0.00%     77.60% # Class of executed instruction
system.cpu3.op_class::FloatDiv                      0      0.00%     77.60% # Class of executed instruction
system.cpu3.op_class::FloatSqrt                     0      0.00%     77.60% # Class of executed instruction
system.cpu3.op_class::SimdAdd                       0      0.00%     77.60% # Class of executed instruction
system.cpu3.op_class::SimdAddAcc                    0      0.00%     77.60% # Class of executed instruction
system.cpu3.op_class::SimdAlu                       0      0.00%     77.60% # Class of executed instruction
system.cpu3.op_class::SimdCmp                       0      0.00%     77.60% # Class of executed instruction
system.cpu3.op_class::SimdCvt                       0      0.00%     77.60% # Class of executed instruction
system.cpu3.op_class::SimdMisc                      0      0.00%     77.60% # Class of executed instruction
system.cpu3.op_class::SimdMult                      0      0.00%     77.60% # Class of executed instruction
system.cpu3.op_class::SimdMultAcc                   0      0.00%     77.60% # Class of executed instruction
system.cpu3.op_class::SimdShift                     0      0.00%     77.60% # Class of executed instruction
system.cpu3.op_class::SimdShiftAcc                  0      0.00%     77.60% # Class of executed instruction
system.cpu3.op_class::SimdSqrt                      0      0.00%     77.60% # Class of executed instruction
system.cpu3.op_class::SimdFloatAdd                  0      0.00%     77.60% # Class of executed instruction
system.cpu3.op_class::SimdFloatAlu                  0      0.00%     77.60% # Class of executed instruction
system.cpu3.op_class::SimdFloatCmp                  0      0.00%     77.60% # Class of executed instruction
system.cpu3.op_class::SimdFloatCvt                  0      0.00%     77.60% # Class of executed instruction
system.cpu3.op_class::SimdFloatDiv                  0      0.00%     77.60% # Class of executed instruction
system.cpu3.op_class::SimdFloatMisc                 0      0.00%     77.60% # Class of executed instruction
system.cpu3.op_class::SimdFloatMult                 0      0.00%     77.60% # Class of executed instruction
system.cpu3.op_class::SimdFloatMultAcc              0      0.00%     77.60% # Class of executed instruction
system.cpu3.op_class::SimdFloatSqrt                 0      0.00%     77.60% # Class of executed instruction
system.cpu3.op_class::MemRead                 5635177     16.73%     94.33% # Class of executed instruction
system.cpu3.op_class::MemWrite                1909491      5.67%    100.00% # Class of executed instruction
system.cpu3.op_class::IprAccess                     0      0.00%    100.00% # Class of executed instruction
system.cpu3.op_class::InstPrefetch                  0      0.00%    100.00% # Class of executed instruction
system.cpu3.op_class::total                  33682619                       # Class of executed instruction
system.iobus.trans_dist::ReadReq                  111                       # Transaction distribution
system.iobus.trans_dist::ReadResp                 111                       # Transaction distribution
system.iobus.trans_dist::WriteReq                3730                       # Transaction distribution
system.iobus.trans_dist::WriteResp               3730                       # Transaction distribution
system.iobus.trans_dist::MessageReq                18                       # Transaction distribution
system.iobus.trans_dist::MessageResp               18                       # Transaction distribution
system.iobus.pkt_count_system.pc.south_bridge.io_apic.int_master::system.ruby.l1_cntrl0.sequencer.pio-slave-port            4                       # Packet count per connected master and slave (bytes)
system.iobus.pkt_count_system.pc.south_bridge.io_apic.int_master::system.ruby.l1_cntrl1.sequencer.pio-slave-port            2                       # Packet count per connected master and slave (bytes)
system.iobus.pkt_count_system.pc.south_bridge.io_apic.int_master::system.ruby.l1_cntrl2.sequencer.pio-slave-port            4                       # Packet count per connected master and slave (bytes)
system.iobus.pkt_count_system.pc.south_bridge.io_apic.int_master::system.ruby.l1_cntrl3.sequencer.pio-slave-port            4                       # Packet count per connected master and slave (bytes)
system.iobus.pkt_count_system.pc.south_bridge.io_apic.int_master::total           14                       # Packet count per connected master and slave (bytes)
system.iobus.pkt_count_system.ruby.l1_cntrl0.sequencer.mem-master-port::system.pc.south_bridge.ide.pio           12                       # Packet count per connected master and slave (bytes)
system.iobus.pkt_count_system.ruby.l1_cntrl0.sequencer.mem-master-port::system.pc.south_bridge.io_apic.pio            8                       # Packet count per connected master and slave (bytes)
system.iobus.pkt_count_system.ruby.l1_cntrl0.sequencer.mem-master-port::system.ruby.l1_cntrl0.sequencer.pio-slave-port         1832                       # Packet count per connected master and slave (bytes)
system.iobus.pkt_count_system.ruby.l1_cntrl0.sequencer.mem-master-port::system.ruby.l1_cntrl1.sequencer.pio-slave-port            6                       # Packet count per connected master and slave (bytes)
system.iobus.pkt_count_system.ruby.l1_cntrl0.sequencer.mem-master-port::system.ruby.l1_cntrl2.sequencer.pio-slave-port            2                       # Packet count per connected master and slave (bytes)
system.iobus.pkt_count_system.ruby.l1_cntrl0.sequencer.mem-master-port::system.ruby.l1_cntrl3.sequencer.pio-slave-port            4                       # Packet count per connected master and slave (bytes)
system.iobus.pkt_count_system.ruby.l1_cntrl0.sequencer.mem-master-port::total         1864                       # Packet count per connected master and slave (bytes)
system.iobus.pkt_count_system.ruby.l1_cntrl1.sequencer.mem-master-port::system.pc.south_bridge.ide.pio           80                       # Packet count per connected master and slave (bytes)
system.iobus.pkt_count_system.ruby.l1_cntrl1.sequencer.mem-master-port::system.pc.com_1.pio            2                       # Packet count per connected master and slave (bytes)
system.iobus.pkt_count_system.ruby.l1_cntrl1.sequencer.mem-master-port::system.ruby.l1_cntrl1.sequencer.pio-slave-port         1822                       # Packet count per connected master and slave (bytes)
system.iobus.pkt_count_system.ruby.l1_cntrl1.sequencer.mem-master-port::system.ruby.l1_cntrl2.sequencer.pio-slave-port            2                       # Packet count per connected master and slave (bytes)
system.iobus.pkt_count_system.ruby.l1_cntrl1.sequencer.mem-master-port::total         1906                       # Packet count per connected master and slave (bytes)
system.iobus.pkt_count_system.ruby.l1_cntrl2.sequencer.mem-master-port::system.pc.south_bridge.ide.pio           46                       # Packet count per connected master and slave (bytes)
system.iobus.pkt_count_system.ruby.l1_cntrl2.sequencer.mem-master-port::system.pc.south_bridge.io_apic.pio            6                       # Packet count per connected master and slave (bytes)
system.iobus.pkt_count_system.ruby.l1_cntrl2.sequencer.mem-master-port::system.pc.com_1.pio          174                       # Packet count per connected master and slave (bytes)
system.iobus.pkt_count_system.ruby.l1_cntrl2.sequencer.mem-master-port::system.ruby.l1_cntrl1.sequencer.pio-slave-port            2                       # Packet count per connected master and slave (bytes)
system.iobus.pkt_count_system.ruby.l1_cntrl2.sequencer.mem-master-port::system.ruby.l1_cntrl2.sequencer.pio-slave-port         1822                       # Packet count per connected master and slave (bytes)
system.iobus.pkt_count_system.ruby.l1_cntrl2.sequencer.mem-master-port::system.ruby.l1_cntrl3.sequencer.pio-slave-port            2                       # Packet count per connected master and slave (bytes)
system.iobus.pkt_count_system.ruby.l1_cntrl2.sequencer.mem-master-port::total         2052                       # Packet count per connected master and slave (bytes)
system.iobus.pkt_count_system.ruby.l1_cntrl3.sequencer.mem-master-port::system.pc.south_bridge.ide.pio           46                       # Packet count per connected master and slave (bytes)
system.iobus.pkt_count_system.ruby.l1_cntrl3.sequencer.mem-master-port::system.pc.south_bridge.io_apic.pio            8                       # Packet count per connected master and slave (bytes)
system.iobus.pkt_count_system.ruby.l1_cntrl3.sequencer.mem-master-port::system.ruby.l1_cntrl0.sequencer.pio-slave-port            2                       # Packet count per connected master and slave (bytes)
system.iobus.pkt_count_system.ruby.l1_cntrl3.sequencer.mem-master-port::system.ruby.l1_cntrl1.sequencer.pio-slave-port            2                       # Packet count per connected master and slave (bytes)
system.iobus.pkt_count_system.ruby.l1_cntrl3.sequencer.mem-master-port::system.ruby.l1_cntrl3.sequencer.pio-slave-port         1824                       # Packet count per connected master and slave (bytes)
system.iobus.pkt_count_system.ruby.l1_cntrl3.sequencer.mem-master-port::total         1882                       # Packet count per connected master and slave (bytes)
system.iobus.pkt_count::total                    7718                       # Packet count per connected master and slave (bytes)
system.iobus.pkt_size_system.pc.south_bridge.io_apic.int_master::system.ruby.l1_cntrl0.sequencer.pio-slave-port            8                       # Cumulative packet size per connected master and slave (bytes)
system.iobus.pkt_size_system.pc.south_bridge.io_apic.int_master::system.ruby.l1_cntrl1.sequencer.pio-slave-port            4                       # Cumulative packet size per connected master and slave (bytes)
system.iobus.pkt_size_system.pc.south_bridge.io_apic.int_master::system.ruby.l1_cntrl2.sequencer.pio-slave-port            8                       # Cumulative packet size per connected master and slave (bytes)
system.iobus.pkt_size_system.pc.south_bridge.io_apic.int_master::system.ruby.l1_cntrl3.sequencer.pio-slave-port            8                       # Cumulative packet size per connected master and slave (bytes)
system.iobus.pkt_size_system.pc.south_bridge.io_apic.int_master::total           28                       # Cumulative packet size per connected master and slave (bytes)
system.iobus.pkt_size_system.ruby.l1_cntrl0.sequencer.mem-master-port::system.pc.south_bridge.ide.pio            6                       # Cumulative packet size per connected master and slave (bytes)
system.iobus.pkt_size_system.ruby.l1_cntrl0.sequencer.mem-master-port::system.pc.south_bridge.io_apic.pio           16                       # Cumulative packet size per connected master and slave (bytes)
system.iobus.pkt_size_system.ruby.l1_cntrl0.sequencer.mem-master-port::system.ruby.l1_cntrl0.sequencer.pio-slave-port         3664                       # Cumulative packet size per connected master and slave (bytes)
system.iobus.pkt_size_system.ruby.l1_cntrl0.sequencer.mem-master-port::system.ruby.l1_cntrl1.sequencer.pio-slave-port           12                       # Cumulative packet size per connected master and slave (bytes)
system.iobus.pkt_size_system.ruby.l1_cntrl0.sequencer.mem-master-port::system.ruby.l1_cntrl2.sequencer.pio-slave-port            4                       # Cumulative packet size per connected master and slave (bytes)
system.iobus.pkt_size_system.ruby.l1_cntrl0.sequencer.mem-master-port::system.ruby.l1_cntrl3.sequencer.pio-slave-port            8                       # Cumulative packet size per connected master and slave (bytes)
system.iobus.pkt_size_system.ruby.l1_cntrl0.sequencer.mem-master-port::total         3710                       # Cumulative packet size per connected master and slave (bytes)
system.iobus.pkt_size_system.ruby.l1_cntrl1.sequencer.mem-master-port::system.pc.south_bridge.ide.pio           46                       # Cumulative packet size per connected master and slave (bytes)
system.iobus.pkt_size_system.ruby.l1_cntrl1.sequencer.mem-master-port::system.pc.com_1.pio            1                       # Cumulative packet size per connected master and slave (bytes)
system.iobus.pkt_size_system.ruby.l1_cntrl1.sequencer.mem-master-port::system.ruby.l1_cntrl1.sequencer.pio-slave-port         3644                       # Cumulative packet size per connected master and slave (bytes)
system.iobus.pkt_size_system.ruby.l1_cntrl1.sequencer.mem-master-port::system.ruby.l1_cntrl2.sequencer.pio-slave-port            4                       # Cumulative packet size per connected master and slave (bytes)
system.iobus.pkt_size_system.ruby.l1_cntrl1.sequencer.mem-master-port::total         3695                       # Cumulative packet size per connected master and slave (bytes)
system.iobus.pkt_size_system.ruby.l1_cntrl2.sequencer.mem-master-port::system.pc.south_bridge.ide.pio           26                       # Cumulative packet size per connected master and slave (bytes)
system.iobus.pkt_size_system.ruby.l1_cntrl2.sequencer.mem-master-port::system.pc.south_bridge.io_apic.pio           12                       # Cumulative packet size per connected master and slave (bytes)
system.iobus.pkt_size_system.ruby.l1_cntrl2.sequencer.mem-master-port::system.pc.com_1.pio           87                       # Cumulative packet size per connected master and slave (bytes)
system.iobus.pkt_size_system.ruby.l1_cntrl2.sequencer.mem-master-port::system.ruby.l1_cntrl1.sequencer.pio-slave-port            4                       # Cumulative packet size per connected master and slave (bytes)
system.iobus.pkt_size_system.ruby.l1_cntrl2.sequencer.mem-master-port::system.ruby.l1_cntrl2.sequencer.pio-slave-port         3644                       # Cumulative packet size per connected master and slave (bytes)
system.iobus.pkt_size_system.ruby.l1_cntrl2.sequencer.mem-master-port::system.ruby.l1_cntrl3.sequencer.pio-slave-port            4                       # Cumulative packet size per connected master and slave (bytes)
system.iobus.pkt_size_system.ruby.l1_cntrl2.sequencer.mem-master-port::total         3777                       # Cumulative packet size per connected master and slave (bytes)
system.iobus.pkt_size_system.ruby.l1_cntrl3.sequencer.mem-master-port::system.pc.south_bridge.ide.pio           26                       # Cumulative packet size per connected master and slave (bytes)
system.iobus.pkt_size_system.ruby.l1_cntrl3.sequencer.mem-master-port::system.pc.south_bridge.io_apic.pio           16                       # Cumulative packet size per connected master and slave (bytes)
system.iobus.pkt_size_system.ruby.l1_cntrl3.sequencer.mem-master-port::system.ruby.l1_cntrl0.sequencer.pio-slave-port            4                       # Cumulative packet size per connected master and slave (bytes)
system.iobus.pkt_size_system.ruby.l1_cntrl3.sequencer.mem-master-port::system.ruby.l1_cntrl1.sequencer.pio-slave-port            4                       # Cumulative packet size per connected master and slave (bytes)
system.iobus.pkt_size_system.ruby.l1_cntrl3.sequencer.mem-master-port::system.ruby.l1_cntrl3.sequencer.pio-slave-port         3648                       # Cumulative packet size per connected master and slave (bytes)
system.iobus.pkt_size_system.ruby.l1_cntrl3.sequencer.mem-master-port::total         3698                       # Cumulative packet size per connected master and slave (bytes)
system.iobus.pkt_size::total                    14908                       # Cumulative packet size per connected master and slave (bytes)
system.iobus.reqLayer2.occupancy               164500                       # Layer occupancy (ticks)
system.iobus.reqLayer2.utilization                0.0                       # Layer utilization (%)
system.iobus.reqLayer8.occupancy                20497                       # Layer occupancy (ticks)
system.iobus.reqLayer8.utilization                0.0                       # Layer utilization (%)
system.iobus.reqLayer12.occupancy              113500                       # Layer occupancy (ticks)
system.iobus.reqLayer12.utilization               0.0                       # Layer utilization (%)
system.iobus.reqLayer17.occupancy             2071480                       # Layer occupancy (ticks)
system.iobus.reqLayer17.utilization               0.0                       # Layer utilization (%)
system.iobus.reqLayer18.occupancy             2287998                       # Layer occupancy (ticks)
system.iobus.reqLayer18.utilization               0.0                       # Layer utilization (%)
system.iobus.reqLayer19.occupancy             2281997                       # Layer occupancy (ticks)
system.iobus.reqLayer19.utilization               0.0                       # Layer utilization (%)
system.iobus.reqLayer20.occupancy             2282993                       # Layer occupancy (ticks)
system.iobus.reqLayer20.utilization               0.0                       # Layer utilization (%)
system.iobus.respLayer0.occupancy                9996                       # Layer occupancy (ticks)
system.iobus.respLayer0.utilization               0.0                       # Layer utilization (%)
system.iobus.respLayer2.occupancy             1399500                       # Layer occupancy (ticks)
system.iobus.respLayer2.utilization               0.0                       # Layer utilization (%)
system.iobus.respLayer4.occupancy             1421500                       # Layer occupancy (ticks)
system.iobus.respLayer4.utilization               0.0                       # Layer utilization (%)
system.iobus.respLayer6.occupancy             1557500                       # Layer occupancy (ticks)
system.iobus.respLayer6.utilization               0.0                       # Layer utilization (%)
system.iobus.respLayer8.occupancy             1409000                       # Layer occupancy (ticks)
system.iobus.respLayer8.utilization               0.0                       # Layer utilization (%)
system.pc.south_bridge.ide.disks.dma_read_full_pages            1                       # Number of full page size DMA reads (not PRD).
system.pc.south_bridge.ide.disks.dma_read_bytes         4096                       # Number of bytes transfered via DMA reads (not PRD).
system.pc.south_bridge.ide.disks.dma_read_txs            1                       # Number of DMA read transactions (not PRD).
system.pc.south_bridge.ide.disks.dma_write_full_pages           45                       # Number of full page size DMA writes.
system.pc.south_bridge.ide.disks.dma_write_bytes       184320                       # Number of bytes transfered via DMA writes.
system.pc.south_bridge.ide.disks.dma_write_txs           45                       # Number of DMA write transactions.
system.ruby.clk_domain.clock                      500                       # Clock period in ticks
system.ruby.outstanding_req_hist_seqr::bucket_size            1                      
system.ruby.outstanding_req_hist_seqr::max_bucket            9                      
system.ruby.outstanding_req_hist_seqr::samples   3589084911                      
system.ruby.outstanding_req_hist_seqr::mean     1.000000                      
system.ruby.outstanding_req_hist_seqr::gmean     1.000000                      
system.ruby.outstanding_req_hist_seqr::stdev     0.000246                      
system.ruby.outstanding_req_hist_seqr    |           0      0.00%      0.00% |  3589084694    100.00%    100.00% |         217      0.00%    100.00% |           0      0.00%    100.00% |           0      0.00%    100.00% |           0      0.00%    100.00% |           0      0.00%    100.00% |           0      0.00%    100.00% |           0      0.00%    100.00% |           0      0.00%    100.00%
system.ruby.outstanding_req_hist_seqr::total   3589084911                      
system.ruby.latency_hist_seqr::bucket_size          128                      
system.ruby.latency_hist_seqr::max_bucket         1279                      
system.ruby.latency_hist_seqr::samples     3589084911                      
system.ruby.latency_hist_seqr::mean          1.018071                      
system.ruby.latency_hist_seqr::gmean         1.003019                      
system.ruby.latency_hist_seqr::stdev         0.647854                      
[...]
system.ruby.L1Cache_Controller.O.Load::total        19726                      
system.ruby.L1Cache_Controller.O.Store   |           4      1.84%      1.84% |          72     33.18%     35.02% |         108     49.77%     84.79% |          33     15.21%    100.00%
system.ruby.L1Cache_Controller.O.Store::total          217                      
system.ruby.L1Cache_Controller.O.L1_Replacement |          75     10.93%     10.93% |         122     17.78%     28.72% |         298     43.44%     72.16% |         191     27.84%    100.00%
system.ruby.L1Cache_Controller.O.L1_Replacement::total          686                      
system.ruby.L1Cache_Controller.O.Fwd_GETX |         165      0.93%      0.93% |        5550     31.13%     32.06% |        3731     20.93%     52.99% |        8380     47.01%    100.00%
system.ruby.L1Cache_Controller.O.Fwd_GETX::total        17826                      
system.ruby.L1Cache_Controller.O.Fwd_GETS |         201      0.79%      0.79% |        3215     12.60%     13.39% |        3034     11.89%     25.28% |       19062     74.72%    100.00%
system.ruby.L1Cache_Controller.O.Fwd_GETS::total        25512                      
system.ruby.L1Cache_Controller.M.Load    |    17838391     97.40%     97.40% |       26313      0.14%     97.54% |      102486      0.56%     98.10% |      347636      1.90%    100.00%
system.ruby.L1Cache_Controller.M.Load::total     18314826                      
system.ruby.L1Cache_Controller.M.Store   |      190126     92.02%     92.02% |        1528      0.74%     92.76% |        6348      3.07%     95.83% |        8608      4.17%    100.00%
system.ruby.L1Cache_Controller.M.Store::total       206610                      
system.ruby.L1Cache_Controller.M.L1_Replacement |      192600     92.12%     92.12% |        2473      1.18%     93.30% |        6170      2.95%     96.25% |        7833      3.75%    100.00%
system.ruby.L1Cache_Controller.M.L1_Replacement::total       209076                      
system.ruby.L1Cache_Controller.M.Fwd_GETX |          93     12.88%     12.88% |         129     17.87%     30.75% |         167     23.13%     53.88% |         333     46.12%    100.00%
system.ruby.L1Cache_Controller.M.Fwd_GETX::total          722                      
system.ruby.L1Cache_Controller.M.Fwd_GETS |         238      1.27%      1.27% |        5734     30.70%     31.97% |        4082     21.85%     53.83% |        8625     46.17%    100.00%
system.ruby.L1Cache_Controller.M.Fwd_GETS::total        18679                      
system.ruby.L1Cache_Controller.M_W.Load  |       86028     71.99%     71.99% |        7589      6.35%     78.34% |       12536     10.49%     88.83% |       13346     11.17%    100.00%
system.ruby.L1Cache_Controller.M_W.Load::total       119499                      
system.ruby.L1Cache_Controller.M_W.Store |       37524     91.19%     91.19% |         561      1.36%     92.55% |        1516      3.68%     96.24% |        1548      3.76%    100.00%
system.ruby.L1Cache_Controller.M_W.Store::total        41149                      
system.ruby.L1Cache_Controller.M_W.L1_Replacement |           2     16.67%     16.67% |           7     58.33%     75.00% |           0      0.00%     75.00% |           3     25.00%    100.00%
system.ruby.L1Cache_Controller.M_W.L1_Replacement::total           12                      
system.ruby.L1Cache_Controller.M_W.Fwd_GETX |           7      9.59%      9.59% |          66     90.41%    100.00% |           0      0.00%    100.00% |           0      0.00%    100.00%
system.ruby.L1Cache_Controller.M_W.Fwd_GETX::total           73                      
system.ruby.L1Cache_Controller.M_W.Fwd_GETS |           7      2.08%      2.08% |         199     59.05%     61.13% |          93     27.60%     88.72% |          38     11.28%    100.00%
system.ruby.L1Cache_Controller.M_W.Fwd_GETS::total          337                      
system.ruby.L1Cache_Controller.M_W.Use_Timeout |      383145     88.07%     88.07% |        9854      2.27%     90.34% |       16724      3.84%     94.18% |       25306      5.82%    100.00%
system.ruby.L1Cache_Controller.M_W.Use_Timeout::total       435029                      
system.ruby.L1Cache_Controller.MM.Load   |   343307624     98.43%     98.43% |      642525      0.18%     98.61% |     1064660      0.31%     98.92% |     3772364      1.08%    100.00%
system.ruby.L1Cache_Controller.MM.Load::total    348787173                      
system.ruby.L1Cache_Controller.MM.Store  |   170379553     97.57%     97.57% |      674560      0.39%     97.96% |     1137345      0.65%     98.61% |     2426871      1.39%    100.00%
system.ruby.L1Cache_Controller.MM.Store::total    174618329                      
system.ruby.L1Cache_Controller.MM.L1_Replacement |     1195874     93.63%     93.63% |        9379      0.73%     94.37% |       31248      2.45%     96.82% |       40676      3.18%    100.00%
system.ruby.L1Cache_Controller.MM.L1_Replacement::total      1277177                      
system.ruby.L1Cache_Controller.MM.Fwd_GETX |        1175     18.57%     18.57% |        1449     22.89%     41.46% |        1119     17.68%     59.14% |        2586     40.86%    100.00%
system.ruby.L1Cache_Controller.MM.Fwd_GETX::total         6329                      
system.ruby.L1Cache_Controller.MM.Fwd_GETS |        5453     34.02%     34.02% |        3225     20.12%     54.14% |        3153     19.67%     73.81% |        4199     26.19%    100.00%
system.ruby.L1Cache_Controller.MM.Fwd_GETS::total        16030                      
system.ruby.L1Cache_Controller.MM.Fwd_DMA |           0      0.00%      0.00% |          17     51.52%     51.52% |           4     12.12%     63.64% |          12     36.36%    100.00%
system.ruby.L1Cache_Controller.MM.Fwd_DMA::total           33                      
system.ruby.L1Cache_Controller.MM_W.Load |       22654     73.95%     73.95% |        1116      3.64%     77.59% |        2320      7.57%     85.16% |        4546     14.84%    100.00%
system.ruby.L1Cache_Controller.MM_W.Load::total        30636                      
system.ruby.L1Cache_Controller.MM_W.Store |      796081     77.12%     77.12% |       35622      3.45%     80.58% |      108507     10.51%     91.09% |       91993      8.91%    100.00%
system.ruby.L1Cache_Controller.MM_W.Store::total      1032203                      
system.ruby.L1Cache_Controller.MM_W.Fwd_GETX |           0      0.00%      0.00% |           2     50.00%     50.00% |           2     50.00%    100.00% |           0      0.00%    100.00%
system.ruby.L1Cache_Controller.MM_W.Fwd_GETX::total            4                      
system.ruby.L1Cache_Controller.MM_W.Fwd_GETS |         824     28.28%     28.28% |         954     32.74%     61.02% |         939     32.22%     93.24% |         197      6.76%    100.00%
system.ruby.L1Cache_Controller.MM_W.Fwd_GETS::total         2914                      
system.ruby.L1Cache_Controller.MM_W.Use_Timeout |     1012722     92.65%     92.65% |       12251      1.12%     93.77% |       29385      2.69%     96.46% |       38660      3.54%    100.00%
system.ruby.L1Cache_Controller.MM_W.Use_Timeout::total      1093018                      
system.ruby.L1Cache_Controller.IM.Ack    |        7302     33.80%     33.80% |        4630     21.43%     55.23% |        4744     21.96%     77.18% |        4930     22.82%    100.00%
system.ruby.L1Cache_Controller.IM.Ack::total        21606                      
system.ruby.L1Cache_Controller.IM.Exclusive_Data |      969404     93.89%     93.89% |        8970      0.87%     94.76% |       20264      1.96%     96.72% |       33876      3.28%    100.00%
system.ruby.L1Cache_Controller.IM.Exclusive_Data::total      1032514                      
system.ruby.L1Cache_Controller.SM.Ack    |       10918     64.44%     64.44% |        2922     17.25%     81.69% |        2068     12.21%     93.89% |        1035      6.11%    100.00%
system.ruby.L1Cache_Controller.SM.Ack::total        16943                      
system.ruby.L1Cache_Controller.SM.Exclusive_Data |        5790     30.25%     30.25% |        2648     13.84%     44.09% |        7497     39.17%     83.26% |        3203     16.74%    100.00%
system.ruby.L1Cache_Controller.SM.Exclusive_Data::total        19138                      
system.ruby.L1Cache_Controller.OM.Own_GETX |           4      1.84%      1.84% |          72     33.18%     35.02% |         108     49.77%     84.79% |          33     15.21%    100.00%
system.ruby.L1Cache_Controller.OM.Own_GETX::total          217                      
system.ruby.L1Cache_Controller.OM.Ack    |        1814     51.53%     51.53% |         287      8.15%     59.69% |         930     26.42%     86.11% |         489     13.89%    100.00%
system.ruby.L1Cache_Controller.OM.Ack::total         3520                      
system.ruby.L1Cache_Controller.OM.All_acks |      975198     92.71%     92.71% |       11690      1.11%     93.82% |       27869      2.65%     96.47% |       37112      3.53%    100.00%
system.ruby.L1Cache_Controller.OM.All_acks::total      1051869                      
system.ruby.L1Cache_Controller.IS.Data   |     2161164     89.22%     89.22% |       57223      2.36%     91.59% |      110988      4.58%     96.17% |       92786      3.83%    100.00%
system.ruby.L1Cache_Controller.IS.Data::total      2422161                      
system.ruby.L1Cache_Controller.IS.Exclusive_Data |      420669     88.34%     88.34% |       10415      2.19%     90.53% |       18240      3.83%     94.36% |       26854      5.64%    100.00%
system.ruby.L1Cache_Controller.IS.Exclusive_Data::total       476178                      
system.ruby.L1Cache_Controller.SI.Load   |           0      0.00%      0.00% |           0      0.00%      0.00% |         183     61.20%     61.20% |         116     38.80%    100.00%
system.ruby.L1Cache_Controller.SI.Load::total          299                      
system.ruby.L1Cache_Controller.SI.Ifetch |           0      0.00%      0.00% |           0      0.00%      0.00% |           4    100.00%    100.00% |           0      0.00%    100.00%
system.ruby.L1Cache_Controller.SI.Ifetch::total            4                      
system.ruby.L1Cache_Controller.SI.Writeback_Ack |     2147689     91.27%     91.27% |       45335      1.93%     93.19% |       81847      3.48%     96.67% |       78361      3.33%    100.00%
system.ruby.L1Cache_Controller.SI.Writeback_Ack::total      2353232                      
system.ruby.L1Cache_Controller.SI.Writeback_Ack_Data |        7139     22.00%     22.00% |        3323     10.24%     32.24% |       13995     43.13%     75.38% |        7989     24.62%    100.00%
system.ruby.L1Cache_Controller.SI.Writeback_Ack_Data::total        32446                      
system.ruby.L1Cache_Controller.OI.Writeback_Ack_Data |          75     10.92%     10.92% |         122     17.76%     28.68% |         298     43.38%     72.05% |         192     27.95%    100.00%
system.ruby.L1Cache_Controller.OI.Writeback_Ack_Data::total          687                      
system.ruby.L1Cache_Controller.MI.Load   |           6     19.35%     19.35% |          18     58.06%     77.42% |           7     22.58%    100.00% |           0      0.00%    100.00%
system.ruby.L1Cache_Controller.MI.Load::total           31                      
system.ruby.L1Cache_Controller.MI.Fwd_GETS |           0      0.00%      0.00% |           0      0.00%      0.00% |           0      0.00%      0.00% |           1    100.00%    100.00%
system.ruby.L1Cache_Controller.MI.Fwd_GETS::total            1                      
system.ruby.L1Cache_Controller.MI.Writeback_Ack_Data |     1388474     93.42%     93.42% |       11852      0.80%     94.22% |       37418      2.52%     96.74% |       48508      3.26%    100.00%
system.ruby.L1Cache_Controller.MI.Writeback_Ack_Data::total      1486252                      
system.ruby.L2Cache_Controller.L1_GETS        2898683      0.00%      0.00%
system.ruby.L2Cache_Controller.L1_GETX        1051879      0.00%      0.00%
system.ruby.L2Cache_Controller.L1_PUTO            686      0.00%      0.00%
system.ruby.L2Cache_Controller.L1_PUTX        1486255      0.00%      0.00%
system.ruby.L2Cache_Controller.L1_PUTS_only      1947132      0.00%      0.00%
system.ruby.L2Cache_Controller.L1_PUTS         438554      0.00%      0.00%
system.ruby.L2Cache_Controller.Fwd_GETX            34      0.00%      0.00%
system.ruby.L2Cache_Controller.Fwd_DMA             33      0.00%      0.00%
system.ruby.L2Cache_Controller.Inv                 12      0.00%      0.00%
system.ruby.L2Cache_Controller.All_Acks         41657      0.00%      0.00%
system.ruby.L2Cache_Controller.Data             80809      0.00%      0.00%
system.ruby.L2Cache_Controller.L1_WBCLEANDATA        32446      0.00%      0.00%
system.ruby.L2Cache_Controller.L1_WBDIRTYDATA      1486939      0.00%      0.00%
system.ruby.L2Cache_Controller.Writeback_Ack        34075      0.00%      0.00%
system.ruby.L2Cache_Controller.Unblock        4775393      0.00%      0.00%
system.ruby.L2Cache_Controller.Exclusive_Unblock      1528047      0.00%      0.00%
system.ruby.L2Cache_Controller.DmaAck              33      0.00%      0.00%
system.ruby.L2Cache_Controller.L2_Replacement        59953      0.00%      0.00%
system.ruby.L2Cache_Controller.NP.L1_GETS        39152      0.00%      0.00%
system.ruby.L2Cache_Controller.NP.L1_GETX        30001      0.00%      0.00%
system.ruby.L2Cache_Controller.NP.Inv               2      0.00%      0.00%
system.ruby.L2Cache_Controller.ILS.L1_GETS         3808      0.00%      0.00%
system.ruby.L2Cache_Controller.ILS.L1_GETX         8416      0.00%      0.00%
system.ruby.L2Cache_Controller.ILS.L1_PUTS_only        29827      0.00%      0.00%
system.ruby.L2Cache_Controller.ILS.L1_PUTS         2619      0.00%      0.00%
system.ruby.L2Cache_Controller.ILX.L1_GETS        34710      0.00%      0.00%
system.ruby.L2Cache_Controller.ILX.L1_GETX         7051      0.00%      0.00%
system.ruby.L2Cache_Controller.ILX.L1_PUTX      1486252      0.00%      0.00%
system.ruby.L2Cache_Controller.ILX.Fwd_DMA           33      0.00%      0.00%
system.ruby.L2Cache_Controller.ILOX.L1_GETS        13492      0.00%      0.00%
system.ruby.L2Cache_Controller.ILOX.L1_GETX         1849      0.00%      0.00%
system.ruby.L2Cache_Controller.ILOX.L1_PUTO          333      0.00%      0.00%
system.ruby.L2Cache_Controller.ILOSX.L1_GETS        12020      0.00%      0.00%
system.ruby.L2Cache_Controller.ILOSX.L1_GETX        16194      0.00%      0.00%
system.ruby.L2Cache_Controller.ILOSX.L1_PUTO          353      0.00%      0.00%
system.ruby.L2Cache_Controller.ILOSX.L1_PUTX            1      0.00%      0.00%
system.ruby.L2Cache_Controller.ILOSX.L1_PUTS_only        15686      0.00%      0.00%
system.ruby.L2Cache_Controller.ILOSX.L1_PUTS         2944      0.00%      0.00%
system.ruby.L2Cache_Controller.S.L1_GETS      1902262      0.00%      0.00%
system.ruby.L2Cache_Controller.S.L1_GETX         1838      0.00%      0.00%
system.ruby.L2Cache_Controller.S.Inv               10      0.00%      0.00%
system.ruby.L2Cache_Controller.S.L2_Replacement        23982      0.00%      0.00%
system.ruby.L2Cache_Controller.OLSX.L1_GETS         9346      0.00%      0.00%
system.ruby.L2Cache_Controller.OLSX.L1_GETX           99      0.00%      0.00%
system.ruby.L2Cache_Controller.OLSX.L1_PUTS_only          223      0.00%      0.00%
system.ruby.L2Cache_Controller.OLSX.L1_PUTS         9260      0.00%      0.00%
system.ruby.L2Cache_Controller.OLSX.L2_Replacement           43      0.00%      0.00%
system.ruby.L2Cache_Controller.SLS.L1_GETS       423401      0.00%      0.00%
system.ruby.L2Cache_Controller.SLS.L1_GETX         1402      0.00%      0.00%
system.ruby.L2Cache_Controller.SLS.L1_PUTS_only      1901396      0.00%      0.00%
system.ruby.L2Cache_Controller.SLS.L1_PUTS       423723      0.00%      0.00%
system.ruby.L2Cache_Controller.SLS.L2_Replacement         1896      0.00%      0.00%
system.ruby.L2Cache_Controller.M.L1_GETS       460148      0.00%      0.00%
system.ruby.L2Cache_Controller.M.L1_GETX       985019      0.00%      0.00%
system.ruby.L2Cache_Controller.M.Fwd_GETX           34      0.00%      0.00%
system.ruby.L2Cache_Controller.M.L2_Replacement        34032      0.00%      0.00%
system.ruby.L2Cache_Controller.ILOXW.L1_WBDIRTYDATA          333      0.00%      0.00%
system.ruby.L2Cache_Controller.ILOXW.Unblock        15686      0.00%      0.00%
system.ruby.L2Cache_Controller.ILOSXW.L1_WBDIRTYDATA          354      0.00%      0.00%
system.ruby.L2Cache_Controller.ILOSXW.Unblock         2944      0.00%      0.00%
system.ruby.L2Cache_Controller.SLSW.L1_PUTS            8      0.00%      0.00%
system.ruby.L2Cache_Controller.SLSW.Unblock       423723      0.00%      0.00%
system.ruby.L2Cache_Controller.ILSW.L1_WBCLEANDATA         2619      0.00%      0.00%
system.ruby.L2Cache_Controller.IW.L1_WBCLEANDATA        29827      0.00%      0.00%
system.ruby.L2Cache_Controller.SW.L1_GETS            4      0.00%      0.00%
system.ruby.L2Cache_Controller.SW.Unblock      1901396      0.00%      0.00%
system.ruby.L2Cache_Controller.OXW.Unblock          223      0.00%      0.00%
system.ruby.L2Cache_Controller.OLSXW.Unblock         9260      0.00%      0.00%
system.ruby.L2Cache_Controller.ILXW.L1_GETS            1      0.00%      0.00%
system.ruby.L2Cache_Controller.ILXW.L1_GETX            2      0.00%      0.00%
system.ruby.L2Cache_Controller.ILXW.L1_WBDIRTYDATA      1486252      0.00%      0.00%
system.ruby.L2Cache_Controller.IFLS.L1_GETS            6      0.00%      0.00%
system.ruby.L2Cache_Controller.IFLS.Unblock         3808      0.00%      0.00%
system.ruby.L2Cache_Controller.IFLOX.Unblock        13492      0.00%      0.00%
system.ruby.L2Cache_Controller.IFLOX.Exclusive_Unblock           99      0.00%      0.00%
system.ruby.L2Cache_Controller.IFLOXX.L1_GETS          139      0.00%      0.00%
system.ruby.L2Cache_Controller.IFLOXX.L1_GETX            8      0.00%      0.00%
system.ruby.L2Cache_Controller.IFLOXX.L1_PUTX            2      0.00%      0.00%
system.ruby.L2Cache_Controller.IFLOXX.Unblock        18680      0.00%      0.00%
system.ruby.L2Cache_Controller.IFLOXX.Exclusive_Unblock        24930      0.00%      0.00%
system.ruby.L2Cache_Controller.IFLOSX.L1_GETS            1      0.00%      0.00%
system.ruby.L2Cache_Controller.IFLOSX.Unblock        12020      0.00%      0.00%
system.ruby.L2Cache_Controller.IFLXO.L1_GETS           97      0.00%      0.00%
system.ruby.L2Cache_Controller.IFLXO.Exclusive_Unblock        16194      0.00%      0.00%
system.ruby.L2Cache_Controller.IGS.L1_GETS           91      0.00%      0.00%
system.ruby.L2Cache_Controller.IGS.Data         39152      0.00%      0.00%
system.ruby.L2Cache_Controller.IGS.Unblock        39152      0.00%      0.00%
system.ruby.L2Cache_Controller.IGM.Data         31839      0.00%      0.00%
system.ruby.L2Cache_Controller.IGMLS.Data         9818      0.00%      0.00%
system.ruby.L2Cache_Controller.IGMO.All_Acks        41657      0.00%      0.00%
system.ruby.L2Cache_Controller.IGMO.Exclusive_Unblock        41657      0.00%      0.00%
system.ruby.L2Cache_Controller.MM.Exclusive_Unblock       985019      0.00%      0.00%
system.ruby.L2Cache_Controller.SS.Unblock      1902262      0.00%      0.00%
system.ruby.L2Cache_Controller.OO.Exclusive_Unblock       460148      0.00%      0.00%
system.ruby.L2Cache_Controller.OLSXS.Unblock         9346      0.00%      0.00%
system.ruby.L2Cache_Controller.SLSS.L1_GETS            5      0.00%      0.00%
system.ruby.L2Cache_Controller.SLSS.Unblock       423401      0.00%      0.00%
system.ruby.L2Cache_Controller.MI.Writeback_Ack        34032      0.00%      0.00%
system.ruby.L2Cache_Controller.OLSI.Writeback_Ack           43      0.00%      0.00%
system.ruby.L2Cache_Controller.ILXD.DmaAck           33      0.00%      0.00%

---------- End Simulation Statistics   ----------
