
---------- Begin Simulation Statistics ----------
sim_seconds                                  2.405266                       # Number of seconds simulated
sim_ticks                                2405265666500                       # Number of ticks simulated
final_tick                               55235916768501                       # Number of ticks from beginning of simulation (restored from checkpoints and never reset)
sim_freq                                 1000000000000                       # Frequency of simulated ticks
host_inst_rate                                 157166                       # Simulator instruction rate (inst/s)
host_op_rate                                   284894                       # Simulator op (including micro ops) rate (op/s)
host_tick_rate                              287908930                       # Simulator tick rate (ticks/s)
host_mem_usage                                1973044                       # Number of bytes of host memory used
host_seconds                                  8354.26                       # Real time elapsed on the host
sim_insts                                  1313004918                       # Number of instructions simulated
sim_ops                                    2380079766                       # Number of ops (including micro ops) simulated
system.voltage_domain.voltage                       1                       # Voltage in Volts
system.clk_domain.clock                          1000                       # Clock period in ticks
system.mem_ctrls0.bytes_read::ruby.dir_cntrl0     84641984                       # Number of bytes read from this memory
system.mem_ctrls0.bytes_read::total          84641984                       # Number of bytes read from this memory
system.mem_ctrls0.bytes_written::ruby.dir_cntrl0     83905280                       # Number of bytes written to this memory
system.mem_ctrls0.bytes_written::total       83905280                       # Number of bytes written to this memory
system.mem_ctrls0.num_reads::ruby.dir_cntrl0      1322531                       # Number of read requests responded to by this memory
system.mem_ctrls0.num_reads::total            1322531                       # Number of read requests responded to by this memory
system.mem_ctrls0.num_writes::ruby.dir_cntrl0      1311020                       # Number of write requests responded to by this memory
system.mem_ctrls0.num_writes::total           1311020                       # Number of write requests responded to by this memory
system.mem_ctrls0.bw_read::ruby.dir_cntrl0     35190285                       # Total read bandwidth from this memory (bytes/s)
system.mem_ctrls0.bw_read::total             35190285                       # Total read bandwidth from this memory (bytes/s)
system.mem_ctrls0.bw_write::ruby.dir_cntrl0     34883997                       # Write bandwidth from this memory (bytes/s)
system.mem_ctrls0.bw_write::total            34883997                       # Write bandwidth from this memory (bytes/s)
system.mem_ctrls0.bw_total::ruby.dir_cntrl0     70074282                       # Total bandwidth to/from this memory (bytes/s)
system.mem_ctrls0.bw_total::total            70074282                       # Total bandwidth to/from this memory (bytes/s)
system.mem_ctrls0.readReqs                    1322531                       # Number of read requests accepted
system.mem_ctrls0.writeReqs                   1311020                       # Number of write requests accepted
system.mem_ctrls0.readBursts                  1322531                       # Number of DRAM read bursts, including those serviced by the write queue
system.mem_ctrls0.writeBursts                 1311020                       # Number of DRAM write bursts, including those merged in the write queue
system.mem_ctrls0.bytesReadDRAM              78025408                       # Total number of bytes read from DRAM
system.mem_ctrls0.bytesReadWrQ                6616576                       # Total number of bytes read from write queue
system.mem_ctrls0.bytesWritten               79688704                       # Total number of bytes written to DRAM
system.mem_ctrls0.bytesReadSys               84641984                       # Total read bytes from the system interface side
system.mem_ctrls0.bytesWrittenSys            83905280                       # Total written bytes from the system interface side
system.mem_ctrls0.servicedByWrQ                103384                       # Number of DRAM read bursts serviced by the write queue
system.mem_ctrls0.mergedWrBursts                65890                       # Number of DRAM write bursts merged with an existing one
system.mem_ctrls0.neitherReadNorWriteReqs            0                       # Number of requests that are neither read nor write
system.mem_ctrls0.perBankRdBursts::0            81363                       # Per bank write bursts
system.mem_ctrls0.perBankRdBursts::1            73441                       # Per bank write bursts
system.mem_ctrls0.perBankRdBursts::2            72545                       # Per bank write bursts
system.mem_ctrls0.perBankRdBursts::3            74728                       # Per bank write bursts
system.mem_ctrls0.perBankRdBursts::4            86018                       # Per bank write bursts
system.mem_ctrls0.perBankRdBursts::5            67745                       # Per bank write bursts
system.mem_ctrls0.perBankRdBursts::6            74812                       # Per bank write bursts
system.mem_ctrls0.perBankRdBursts::7            75644                       # Per bank write bursts
system.mem_ctrls0.perBankRdBursts::8            72172                       # Per bank write bursts
system.mem_ctrls0.perBankRdBursts::9            74789                       # Per bank write bursts
system.mem_ctrls0.perBankRdBursts::10           83604                       # Per bank write bursts
system.mem_ctrls0.perBankRdBursts::11           76726                       # Per bank write bursts
system.mem_ctrls0.perBankRdBursts::12           73614                       # Per bank write bursts
system.mem_ctrls0.perBankRdBursts::13           76363                       # Per bank write bursts
system.mem_ctrls0.perBankRdBursts::14           79309                       # Per bank write bursts
system.mem_ctrls0.perBankRdBursts::15           76274                       # Per bank write bursts
system.mem_ctrls0.perBankWrBursts::0            84338                       # Per bank write bursts
system.mem_ctrls0.perBankWrBursts::1            76168                       # Per bank write bursts
system.mem_ctrls0.perBankWrBursts::2            74205                       # Per bank write bursts
system.mem_ctrls0.perBankWrBursts::3            75773                       # Per bank write bursts
system.mem_ctrls0.perBankWrBursts::4            89215                       # Per bank write bursts
system.mem_ctrls0.perBankWrBursts::5            68274                       # Per bank write bursts
system.mem_ctrls0.perBankWrBursts::6            80714                       # Per bank write bursts
system.mem_ctrls0.perBankWrBursts::7            76531                       # Per bank write bursts
system.mem_ctrls0.perBankWrBursts::8            73642                       # Per bank write bursts
system.mem_ctrls0.perBankWrBursts::9            74670                       # Per bank write bursts
system.mem_ctrls0.perBankWrBursts::10           83917                       # Per bank write bursts
system.mem_ctrls0.perBankWrBursts::11           79159                       # Per bank write bursts
system.mem_ctrls0.perBankWrBursts::12           75157                       # Per bank write bursts
system.mem_ctrls0.perBankWrBursts::13           76390                       # Per bank write bursts
system.mem_ctrls0.perBankWrBursts::14           81076                       # Per bank write bursts
system.mem_ctrls0.perBankWrBursts::15           75907                       # Per bank write bursts
system.mem_ctrls0.numRdRetry                        0                       # Number of times read queue was full causing retry
system.mem_ctrls0.numWrRetry                        0                       # Number of times write queue was full causing retry
system.mem_ctrls0.totGap                 2405265605500                       # Total gap between requests
system.mem_ctrls0.readPktSize::0                    0                       # Read request sizes (log2)
system.mem_ctrls0.readPktSize::1                    0                       # Read request sizes (log2)
system.mem_ctrls0.readPktSize::2                    0                       # Read request sizes (log2)
system.mem_ctrls0.readPktSize::3                    0                       # Read request sizes (log2)
system.mem_ctrls0.readPktSize::4                    0                       # Read request sizes (log2)
system.mem_ctrls0.readPktSize::5                    0                       # Read request sizes (log2)
system.mem_ctrls0.readPktSize::6              1322531                       # Read request sizes (log2)
system.mem_ctrls0.writePktSize::0                   0                       # Write request sizes (log2)
system.mem_ctrls0.writePktSize::1                   0                       # Write request sizes (log2)
system.mem_ctrls0.writePktSize::2                   0                       # Write request sizes (log2)
system.mem_ctrls0.writePktSize::3                   0                       # Write request sizes (log2)
system.mem_ctrls0.writePktSize::4                   0                       # Write request sizes (log2)
system.mem_ctrls0.writePktSize::5                   0                       # Write request sizes (log2)
system.mem_ctrls0.writePktSize::6             1311020                       # Write request sizes (log2)
system.mem_ctrls0.rdQLenPdf::0                1216047                       # What read queue length does an incoming req see
system.mem_ctrls0.rdQLenPdf::1                   3078                       # What read queue length does an incoming req see
system.mem_ctrls0.rdQLenPdf::2                     22                       # What read queue length does an incoming req see
system.mem_ctrls0.rdQLenPdf::3                      0                       # What read queue length does an incoming req see
system.mem_ctrls0.rdQLenPdf::4                      0                       # What read queue length does an incoming req see
system.mem_ctrls0.rdQLenPdf::5                      0                       # What read queue length does an incoming req see
system.mem_ctrls0.rdQLenPdf::6                      0                       # What read queue length does an incoming req see
system.mem_ctrls0.rdQLenPdf::7                      0                       # What read queue length does an incoming req see
system.mem_ctrls0.rdQLenPdf::8                      0                       # What read queue length does an incoming req see
system.mem_ctrls0.rdQLenPdf::9                      0                       # What read queue length does an incoming req see
system.mem_ctrls0.rdQLenPdf::10                     0                       # What read queue length does an incoming req see
system.mem_ctrls0.rdQLenPdf::11                     0                       # What read queue length does an incoming req see
system.mem_ctrls0.rdQLenPdf::12                     0                       # What read queue length does an incoming req see
system.mem_ctrls0.rdQLenPdf::13                     0                       # What read queue length does an incoming req see
system.mem_ctrls0.rdQLenPdf::14                     0                       # What read queue length does an incoming req see
system.mem_ctrls0.rdQLenPdf::15                     0                       # What read queue length does an incoming req see
system.mem_ctrls0.rdQLenPdf::16                     0                       # What read queue length does an incoming req see
system.mem_ctrls0.rdQLenPdf::17                     0                       # What read queue length does an incoming req see
system.mem_ctrls0.rdQLenPdf::18                     0                       # What read queue length does an incoming req see
system.mem_ctrls0.rdQLenPdf::19                     0                       # What read queue length does an incoming req see
system.mem_ctrls0.rdQLenPdf::20                     0                       # What read queue length does an incoming req see
system.mem_ctrls0.rdQLenPdf::21                     0                       # What read queue length does an incoming req see
system.mem_ctrls0.rdQLenPdf::22                     0                       # What read queue length does an incoming req see
system.mem_ctrls0.rdQLenPdf::23                     0                       # What read queue length does an incoming req see
system.mem_ctrls0.rdQLenPdf::24                     0                       # What read queue length does an incoming req see
system.mem_ctrls0.rdQLenPdf::25                     0                       # What read queue length does an incoming req see
system.mem_ctrls0.rdQLenPdf::26                     0                       # What read queue length does an incoming req see
system.mem_ctrls0.rdQLenPdf::27                     0                       # What read queue length does an incoming req see
system.mem_ctrls0.rdQLenPdf::28                     0                       # What read queue length does an incoming req see
system.mem_ctrls0.rdQLenPdf::29                     0                       # What read queue length does an incoming req see
system.mem_ctrls0.rdQLenPdf::30                     0                       # What read queue length does an incoming req see
system.mem_ctrls0.rdQLenPdf::31                     0                       # What read queue length does an incoming req see
system.mem_ctrls0.wrQLenPdf::0                      0                       # What write queue length does an incoming req see
system.mem_ctrls0.wrQLenPdf::1                      0                       # What write queue length does an incoming req see
system.mem_ctrls0.wrQLenPdf::2                      0                       # What write queue length does an incoming req see
system.mem_ctrls0.wrQLenPdf::3                      0                       # What write queue length does an incoming req see
system.mem_ctrls0.wrQLenPdf::4                      0                       # What write queue length does an incoming req see
system.mem_ctrls0.wrQLenPdf::5                      0                       # What write queue length does an incoming req see
system.mem_ctrls0.wrQLenPdf::6                      0                       # What write queue length does an incoming req see
system.mem_ctrls0.wrQLenPdf::7                      0                       # What write queue length does an incoming req see
system.mem_ctrls0.wrQLenPdf::8                      0                       # What write queue length does an incoming req see
system.mem_ctrls0.wrQLenPdf::9                      0                       # What write queue length does an incoming req see
system.mem_ctrls0.wrQLenPdf::10                     0                       # What write queue length does an incoming req see
system.mem_ctrls0.wrQLenPdf::11                     0                       # What write queue length does an incoming req see
system.mem_ctrls0.wrQLenPdf::12                     0                       # What write queue length does an incoming req see
system.mem_ctrls0.wrQLenPdf::13                     0                       # What write queue length does an incoming req see
system.mem_ctrls0.wrQLenPdf::14                     0                       # What write queue length does an incoming req see
system.mem_ctrls0.wrQLenPdf::15                  5803                       # What write queue length does an incoming req see
system.mem_ctrls0.wrQLenPdf::16                  6206                       # What write queue length does an incoming req see
system.mem_ctrls0.wrQLenPdf::17                 76649                       # What write queue length does an incoming req see
system.mem_ctrls0.wrQLenPdf::18                 77098                       # What write queue length does an incoming req see
system.mem_ctrls0.wrQLenPdf::19                 77100                       # What write queue length does an incoming req see
system.mem_ctrls0.wrQLenPdf::20                 77119                       # What write queue length does an incoming req see
system.mem_ctrls0.wrQLenPdf::21                 77149                       # What write queue length does an incoming req see
system.mem_ctrls0.wrQLenPdf::22                 77135                       # What write queue length does an incoming req see
system.mem_ctrls0.wrQLenPdf::23                 77168                       # What write queue length does an incoming req see
system.mem_ctrls0.wrQLenPdf::24                 77229                       # What write queue length does an incoming req see
system.mem_ctrls0.wrQLenPdf::25                 77160                       # What write queue length does an incoming req see
system.mem_ctrls0.wrQLenPdf::26                 77078                       # What write queue length does an incoming req see
system.mem_ctrls0.wrQLenPdf::27                 77044                       # What write queue length does an incoming req see
system.mem_ctrls0.wrQLenPdf::28                 77039                       # What write queue length does an incoming req see
system.mem_ctrls0.wrQLenPdf::29                 77036                       # What write queue length does an incoming req see
system.mem_ctrls0.wrQLenPdf::30                 77029                       # What write queue length does an incoming req see
system.mem_ctrls0.wrQLenPdf::31                 77021                       # What write queue length does an incoming req see
system.mem_ctrls0.wrQLenPdf::32                 77021                       # What write queue length does an incoming req see
system.mem_ctrls0.wrQLenPdf::33                    38                       # What write queue length does an incoming req see
system.mem_ctrls0.wrQLenPdf::34                     6                       # What write queue length does an incoming req see
system.mem_ctrls0.wrQLenPdf::35                     2                       # What write queue length does an incoming req see
system.mem_ctrls0.wrQLenPdf::36                     0                       # What write queue length does an incoming req see
system.mem_ctrls0.wrQLenPdf::37                     0                       # What write queue length does an incoming req see
system.mem_ctrls0.wrQLenPdf::38                     0                       # What write queue length does an incoming req see
system.mem_ctrls0.wrQLenPdf::39                     0                       # What write queue length does an incoming req see
system.mem_ctrls0.wrQLenPdf::40                     0                       # What write queue length does an incoming req see
system.mem_ctrls0.wrQLenPdf::41                     0                       # What write queue length does an incoming req see
system.mem_ctrls0.wrQLenPdf::42                     0                       # What write queue length does an incoming req see
system.mem_ctrls0.wrQLenPdf::43                     0                       # What write queue length does an incoming req see
system.mem_ctrls0.wrQLenPdf::44                     0                       # What write queue length does an incoming req see
system.mem_ctrls0.wrQLenPdf::45                     0                       # What write queue length does an incoming req see
system.mem_ctrls0.wrQLenPdf::46                     0                       # What write queue length does an incoming req see
system.mem_ctrls0.wrQLenPdf::47                     0                       # What write queue length does an incoming req see
system.mem_ctrls0.wrQLenPdf::48                     0                       # What write queue length does an incoming req see
system.mem_ctrls0.wrQLenPdf::49                     0                       # What write queue length does an incoming req see
system.mem_ctrls0.wrQLenPdf::50                     0                       # What write queue length does an incoming req see
system.mem_ctrls0.wrQLenPdf::51                     0                       # What write queue length does an incoming req see
system.mem_ctrls0.wrQLenPdf::52                     0                       # What write queue length does an incoming req see
system.mem_ctrls0.wrQLenPdf::53                     0                       # What write queue length does an incoming req see
system.mem_ctrls0.wrQLenPdf::54                     0                       # What write queue length does an incoming req see
system.mem_ctrls0.wrQLenPdf::55                     0                       # What write queue length does an incoming req see
system.mem_ctrls0.wrQLenPdf::56                     0                       # What write queue length does an incoming req see
system.mem_ctrls0.wrQLenPdf::57                     0                       # What write queue length does an incoming req see
system.mem_ctrls0.wrQLenPdf::58                     0                       # What write queue length does an incoming req see
system.mem_ctrls0.wrQLenPdf::59                     0                       # What write queue length does an incoming req see
system.mem_ctrls0.wrQLenPdf::60                     0                       # What write queue length does an incoming req see
system.mem_ctrls0.wrQLenPdf::61                     0                       # What write queue length does an incoming req see
system.mem_ctrls0.wrQLenPdf::62                     0                       # What write queue length does an incoming req see
system.mem_ctrls0.wrQLenPdf::63                     0                       # What write queue length does an incoming req see
system.mem_ctrls0.bytesPerActivate::samples       916709                       # Bytes accessed per row activation
system.mem_ctrls0.bytesPerActivate::mean   172.043813                       # Bytes accessed per row activation
system.mem_ctrls0.bytesPerActivate::gmean   123.919861                       # Bytes accessed per row activation
system.mem_ctrls0.bytesPerActivate::stdev   177.728902                       # Bytes accessed per row activation
system.mem_ctrls0.bytesPerActivate::0-127       419328     45.74%     45.74% # Bytes accessed per row activation
system.mem_ctrls0.bytesPerActivate::128-255       307673     33.56%     79.31% # Bytes accessed per row activation
system.mem_ctrls0.bytesPerActivate::256-383        89055      9.71%     89.02% # Bytes accessed per row activation
system.mem_ctrls0.bytesPerActivate::384-511        42241      4.61%     93.63% # Bytes accessed per row activation
system.mem_ctrls0.bytesPerActivate::512-639        23120      2.52%     96.15% # Bytes accessed per row activation
system.mem_ctrls0.bytesPerActivate::640-767        11680      1.27%     97.42% # Bytes accessed per row activation
system.mem_ctrls0.bytesPerActivate::768-895         7050      0.77%     98.19% # Bytes accessed per row activation
system.mem_ctrls0.bytesPerActivate::896-1023         4450      0.49%     98.68% # Bytes accessed per row activation
system.mem_ctrls0.bytesPerActivate::1024-1151        12112      1.32%    100.00% # Bytes accessed per row activation
system.mem_ctrls0.bytesPerActivate::total       916709                       # Bytes accessed per row activation
system.mem_ctrls0.rdPerTurnAround::samples        77021                       # Reads before turning the bus around for writes
system.mem_ctrls0.rdPerTurnAround::mean     15.828826                       # Reads before turning the bus around for writes
system.mem_ctrls0.rdPerTurnAround::stdev     9.021845                       # Reads before turning the bus around for writes
system.mem_ctrls0.rdPerTurnAround::0-31         76692     99.57%     99.57% # Reads before turning the bus around for writes
system.mem_ctrls0.rdPerTurnAround::32-63          302      0.39%     99.96% # Reads before turning the bus around for writes
system.mem_ctrls0.rdPerTurnAround::64-95            3      0.00%     99.97% # Reads before turning the bus around for writes
system.mem_ctrls0.rdPerTurnAround::96-127            2      0.00%     99.97% # Reads before turning the bus around for writes
system.mem_ctrls0.rdPerTurnAround::128-159            1      0.00%     99.97% # Reads before turning the bus around for writes
system.mem_ctrls0.rdPerTurnAround::160-191            1      0.00%     99.97% # Reads before turning the bus around for writes
system.mem_ctrls0.rdPerTurnAround::192-223            2      0.00%     99.98% # Reads before turning the bus around for writes
system.mem_ctrls0.rdPerTurnAround::224-255            1      0.00%     99.98% # Reads before turning the bus around for writes
system.mem_ctrls0.rdPerTurnAround::256-287            2      0.00%     99.98% # Reads before turning the bus around for writes
system.mem_ctrls0.rdPerTurnAround::288-319            2      0.00%     99.98% # Reads before turning the bus around for writes
system.mem_ctrls0.rdPerTurnAround::320-351            1      0.00%     99.98% # Reads before turning the bus around for writes
system.mem_ctrls0.rdPerTurnAround::352-383            1      0.00%     99.99% # Reads before turning the bus around for writes
system.mem_ctrls0.rdPerTurnAround::384-415            1      0.00%     99.99% # Reads before turning the bus around for writes
system.mem_ctrls0.rdPerTurnAround::480-511            2      0.00%     99.99% # Reads before turning the bus around for writes
system.mem_ctrls0.rdPerTurnAround::512-543            2      0.00%     99.99% # Reads before turning the bus around for writes
system.mem_ctrls0.rdPerTurnAround::640-671            1      0.00%     99.99% # Reads before turning the bus around for writes
system.mem_ctrls0.rdPerTurnAround::704-735            1      0.00%     99.99% # Reads before turning the bus around for writes
system.mem_ctrls0.rdPerTurnAround::800-831            2      0.00%    100.00% # Reads before turning the bus around for writes
system.mem_ctrls0.rdPerTurnAround::832-863            1      0.00%    100.00% # Reads before turning the bus around for writes
system.mem_ctrls0.rdPerTurnAround::992-1023            1      0.00%    100.00% # Reads before turning the bus around for writes
system.mem_ctrls0.rdPerTurnAround::total        77021                       # Reads before turning the bus around for writes
system.mem_ctrls0.wrPerTurnAround::samples        77021                       # Writes before turning the bus around for reads
system.mem_ctrls0.wrPerTurnAround::mean     16.166188                       # Writes before turning the bus around for reads
system.mem_ctrls0.wrPerTurnAround::gmean    16.156547                       # Writes before turning the bus around for reads
system.mem_ctrls0.wrPerTurnAround::stdev     0.580104                       # Writes before turning the bus around for reads
system.mem_ctrls0.wrPerTurnAround::16           70975     92.15%     92.15% # Writes before turning the bus around for reads
system.mem_ctrls0.wrPerTurnAround::17              95      0.12%     92.27% # Writes before turning the bus around for reads
system.mem_ctrls0.wrPerTurnAround::18            5199      6.75%     99.02% # Writes before turning the bus around for reads
system.mem_ctrls0.wrPerTurnAround::19             712      0.92%     99.95% # Writes before turning the bus around for reads
system.mem_ctrls0.wrPerTurnAround::20              32      0.04%     99.99% # Writes before turning the bus around for reads
system.mem_ctrls0.wrPerTurnAround::21               6      0.01%    100.00% # Writes before turning the bus around for reads
system.mem_ctrls0.wrPerTurnAround::22               1      0.00%    100.00% # Writes before turning the bus around for reads
system.mem_ctrls0.wrPerTurnAround::23               1      0.00%    100.00% # Writes before turning the bus around for reads
system.mem_ctrls0.wrPerTurnAround::total        77021                       # Writes before turning the bus around for reads
system.mem_ctrls0.totQLat                 19420428209                       # Total ticks spent queuing
system.mem_ctrls0.totMemAccLat            42279434459                       # Total ticks spent from burst creation until serviced by the DRAM
system.mem_ctrls0.totBusLat                6095735000                       # Total ticks spent in databus transfers
system.mem_ctrls0.avgQLat                    15929.52                       # Average queueing delay per DRAM burst
system.mem_ctrls0.avgBusLat                   5000.00                       # Average bus latency per DRAM burst
system.mem_ctrls0.avgMemAccLat               34679.52                       # Average memory access latency per DRAM burst
system.mem_ctrls0.avgRdBW                       32.44                       # Average DRAM read bandwidth in MiByte/s
system.mem_ctrls0.avgWrBW                       33.13                       # Average achieved write bandwidth in MiByte/s
system.mem_ctrls0.avgRdBWSys                    35.19                       # Average system read bandwidth in MiByte/s
system.mem_ctrls0.avgWrBWSys                    34.88                       # Average system write bandwidth in MiByte/s
system.mem_ctrls0.peakBW                     12800.00                       # Theoretical peak bandwidth in MiByte/s
system.mem_ctrls0.busUtil                        0.51                       # Data bus utilization in percentage
system.mem_ctrls0.busUtilRead                    0.25                       # Data bus utilization in percentage for reads
system.mem_ctrls0.busUtilWrite                   0.26                       # Data bus utilization in percentage for writes
system.mem_ctrls0.avgRdQLen                      1.00                       # Average read queue length when enqueuing
system.mem_ctrls0.avgWrQLen                     25.46                       # Average write queue length when enqueuing
system.mem_ctrls0.readRowHits                  718943                       # Number of row buffer hits during reads
system.mem_ctrls0.writeRowHits                 828629                       # Number of row buffer hits during writes
system.mem_ctrls0.readRowHitRate                58.97                       # Row buffer hit rate for reads
system.mem_ctrls0.writeRowHitRate               66.55                       # Row buffer hit rate for writes
system.mem_ctrls0.avgGap                    913316.51                       # Average gap between requests
system.mem_ctrls0.pageHitRate                   62.80                       # Row buffer hit rate, read and write combined
system.mem_ctrls0_0.actEnergy              3645265680                       # Energy for activate commands per rank (pJ)
system.mem_ctrls0_0.preEnergy              1988984250                       # Energy for precharge commands per rank (pJ)
system.mem_ctrls0_0.readEnergy             4972765200                       # Energy for read commands per rank (pJ)
system.mem_ctrls0_0.writeEnergy            4253601600                       # Energy for write commands per rank (pJ)
system.mem_ctrls0_0.refreshEnergy        158160125760                       # Energy for refresh commands per rank (pJ)
system.mem_ctrls0_0.actBackEnergy        548266597110                       # Energy for active background per rank (pJ)
system.mem_ctrls0_0.preBackEnergy        971960107500                       # Energy for precharge background per rank (pJ)
system.mem_ctrls0_0.totalEnergy          1693247447100                       # Total energy per rank (pJ)
system.mem_ctrls0_0.averagePower           699.257665                       # Core power per rank (mW)
system.mem_ctrls0_0.memoryStateTime::IDLE 1611416605750                       # Time in different power states
system.mem_ctrls0_0.memoryStateTime::REF  80317120000                       # Time in different power states
system.mem_ctrls0_0.memoryStateTime::PRE_PDN            0                       # Time in different power states
system.mem_ctrls0_0.memoryStateTime::ACT 713533272000                       # Time in different power states
system.mem_ctrls0_0.memoryStateTime::ACT_PDN            0                       # Time in different power states
system.mem_ctrls0_1.actEnergy              3558688560                       # Energy for activate commands per rank (pJ)
system.mem_ctrls0_1.preEnergy              1941744750                       # Energy for precharge commands per rank (pJ)
system.mem_ctrls0_1.readEnergy             5047325400                       # Energy for read commands per rank (pJ)
system.mem_ctrls0_1.writeEnergy            4240369440                       # Energy for write commands per rank (pJ)
system.mem_ctrls0_1.refreshEnergy        158160125760                       # Energy for refresh commands per rank (pJ)
system.mem_ctrls0_1.actBackEnergy        550759060620                       # Energy for active background per rank (pJ)
system.mem_ctrls0_1.preBackEnergy        969773736000                       # Energy for precharge background per rank (pJ)
system.mem_ctrls0_1.totalEnergy          1693481050530                       # Total energy per rank (pJ)
system.mem_ctrls0_1.averagePower           699.354136                       # Core power per rank (mW)
system.mem_ctrls0_1.memoryStateTime::IDLE 1607851659752                       # Time in different power states
system.mem_ctrls0_1.memoryStateTime::REF  80317120000                       # Time in different power states
system.mem_ctrls0_1.memoryStateTime::PRE_PDN            0                       # Time in different power states
system.mem_ctrls0_1.memoryStateTime::ACT 717096824748                       # Time in different power states
system.mem_ctrls0_1.memoryStateTime::ACT_PDN            0                       # Time in different power states
system.mem_ctrls1.bytes_read::ruby.dir_cntrl1     70408448                       # Number of bytes read from this memory
system.mem_ctrls1.bytes_read::total          70408448                       # Number of bytes read from this memory
system.mem_ctrls1.bytes_written::ruby.dir_cntrl1     69676288                       # Number of bytes written to this memory
system.mem_ctrls1.bytes_written::total       69676288                       # Number of bytes written to this memory
system.mem_ctrls1.num_reads::ruby.dir_cntrl1      1100132                       # Number of read requests responded to by this memory
system.mem_ctrls1.num_reads::total            1100132                       # Number of read requests responded to by this memory
system.mem_ctrls1.num_writes::ruby.dir_cntrl1      1088692                       # Number of write requests responded to by this memory
system.mem_ctrls1.num_writes::total           1088692                       # Number of write requests responded to by this memory
system.mem_ctrls1.bw_read::ruby.dir_cntrl1     29272628                       # Total read bandwidth from this memory (bytes/s)
system.mem_ctrls1.bw_read::total             29272628                       # Total read bandwidth from this memory (bytes/s)
system.mem_ctrls1.bw_write::ruby.dir_cntrl1     28968230                       # Write bandwidth from this memory (bytes/s)
system.mem_ctrls1.bw_write::total            28968230                       # Write bandwidth from this memory (bytes/s)
system.mem_ctrls1.bw_total::ruby.dir_cntrl1     58240858                       # Total bandwidth to/from this memory (bytes/s)
system.mem_ctrls1.bw_total::total            58240858                       # Total bandwidth to/from this memory (bytes/s)
system.mem_ctrls1.readReqs                    1100132                       # Number of read requests accepted
system.mem_ctrls1.writeReqs                   1088692                       # Number of write requests accepted
system.mem_ctrls1.readBursts                  1100132                       # Number of DRAM read bursts, including those serviced by the write queue
system.mem_ctrls1.writeBursts                 1088692                       # Number of DRAM write bursts, including those merged in the write queue
system.mem_ctrls1.bytesReadDRAM              65203008                       # Total number of bytes read from DRAM
system.mem_ctrls1.bytesReadWrQ                5205440                       # Total number of bytes read from write queue
system.mem_ctrls1.bytesWritten               65923136                       # Total number of bytes written to DRAM
system.mem_ctrls1.bytesReadSys               70408448                       # Total read bytes from the system interface side
system.mem_ctrls1.bytesWrittenSys            69676288                       # Total written bytes from the system interface side
system.mem_ctrls1.servicedByWrQ                 81335                       # Number of DRAM read bursts serviced by the write queue
system.mem_ctrls1.mergedWrBursts                58637                       # Number of DRAM write bursts merged with an existing one
system.mem_ctrls1.neitherReadNorWriteReqs            0                       # Number of requests that are neither read nor write
system.mem_ctrls1.perBankRdBursts::0            71036                       # Per bank write bursts
system.mem_ctrls1.perBankRdBursts::1            61542                       # Per bank write bursts
system.mem_ctrls1.perBankRdBursts::2            58429                       # Per bank write bursts
system.mem_ctrls1.perBankRdBursts::3            62238                       # Per bank write bursts
system.mem_ctrls1.perBankRdBursts::4            69508                       # Per bank write bursts
system.mem_ctrls1.perBankRdBursts::5            56450                       # Per bank write bursts
system.mem_ctrls1.perBankRdBursts::6            61122                       # Per bank write bursts
system.mem_ctrls1.perBankRdBursts::7            62725                       # Per bank write bursts
system.mem_ctrls1.perBankRdBursts::8            60252                       # Per bank write bursts
system.mem_ctrls1.perBankRdBursts::9            63696                       # Per bank write bursts
system.mem_ctrls1.perBankRdBursts::10           70206                       # Per bank write bursts
system.mem_ctrls1.perBankRdBursts::11           63487                       # Per bank write bursts
system.mem_ctrls1.perBankRdBursts::12           64310                       # Per bank write bursts
system.mem_ctrls1.perBankRdBursts::13           62817                       # Per bank write bursts
system.mem_ctrls1.perBankRdBursts::14           66878                       # Per bank write bursts
system.mem_ctrls1.perBankRdBursts::15           64101                       # Per bank write bursts
system.mem_ctrls1.perBankWrBursts::0            71999                       # Per bank write bursts
system.mem_ctrls1.perBankWrBursts::1            63119                       # Per bank write bursts
system.mem_ctrls1.perBankWrBursts::2            60599                       # Per bank write bursts
system.mem_ctrls1.perBankWrBursts::3            62999                       # Per bank write bursts
system.mem_ctrls1.perBankWrBursts::4            70714                       # Per bank write bursts
system.mem_ctrls1.perBankWrBursts::5            57792                       # Per bank write bursts
system.mem_ctrls1.perBankWrBursts::6            63793                       # Per bank write bursts
system.mem_ctrls1.perBankWrBursts::7            63221                       # Per bank write bursts
system.mem_ctrls1.perBankWrBursts::8            60197                       # Per bank write bursts
system.mem_ctrls1.perBankWrBursts::9            63252                       # Per bank write bursts
system.mem_ctrls1.perBankWrBursts::10           69777                       # Per bank write bursts
system.mem_ctrls1.perBankWrBursts::11           66643                       # Per bank write bursts
system.mem_ctrls1.perBankWrBursts::12           63831                       # Per bank write bursts
system.mem_ctrls1.perBankWrBursts::13           62270                       # Per bank write bursts
system.mem_ctrls1.perBankWrBursts::14           66634                       # Per bank write bursts
system.mem_ctrls1.perBankWrBursts::15           63209                       # Per bank write bursts
system.mem_ctrls1.numRdRetry                        0                       # Number of times read queue was full causing retry
system.mem_ctrls1.numWrRetry                        0                       # Number of times write queue was full causing retry
system.mem_ctrls1.totGap                 2405265767500                       # Total gap between requests
system.mem_ctrls1.readPktSize::0                    0                       # Read request sizes (log2)
system.mem_ctrls1.readPktSize::1                    0                       # Read request sizes (log2)
system.mem_ctrls1.readPktSize::2                    0                       # Read request sizes (log2)
system.mem_ctrls1.readPktSize::3                    0                       # Read request sizes (log2)
system.mem_ctrls1.readPktSize::4                    0                       # Read request sizes (log2)
system.mem_ctrls1.readPktSize::5                    0                       # Read request sizes (log2)
system.mem_ctrls1.readPktSize::6              1100132                       # Read request sizes (log2)
system.mem_ctrls1.writePktSize::0                   0                       # Write request sizes (log2)
system.mem_ctrls1.writePktSize::1                   0                       # Write request sizes (log2)
system.mem_ctrls1.writePktSize::2                   0                       # Write request sizes (log2)
system.mem_ctrls1.writePktSize::3                   0                       # Write request sizes (log2)
system.mem_ctrls1.writePktSize::4                   0                       # Write request sizes (log2)
system.mem_ctrls1.writePktSize::5                   0                       # Write request sizes (log2)
system.mem_ctrls1.writePktSize::6             1088692                       # Write request sizes (log2)
system.mem_ctrls1.rdQLenPdf::0                1016304                       # What read queue length does an incoming req see
system.mem_ctrls1.rdQLenPdf::1                   2484                       # What read queue length does an incoming req see
system.mem_ctrls1.rdQLenPdf::2                      9                       # What read queue length does an incoming req see
system.mem_ctrls1.rdQLenPdf::3                      0                       # What read queue length does an incoming req see
system.mem_ctrls1.rdQLenPdf::4                      0                       # What read queue length does an incoming req see
system.mem_ctrls1.rdQLenPdf::5                      0                       # What read queue length does an incoming req see
system.mem_ctrls1.rdQLenPdf::6                      0                       # What read queue length does an incoming req see
system.mem_ctrls1.rdQLenPdf::7                      0                       # What read queue length does an incoming req see
system.mem_ctrls1.rdQLenPdf::8                      0                       # What read queue length does an incoming req see
system.mem_ctrls1.rdQLenPdf::9                      0                       # What read queue length does an incoming req see
system.mem_ctrls1.rdQLenPdf::10                     0                       # What read queue length does an incoming req see
system.mem_ctrls1.rdQLenPdf::11                     0                       # What read queue length does an incoming req see
system.mem_ctrls1.rdQLenPdf::12                     0                       # What read queue length does an incoming req see
system.mem_ctrls1.rdQLenPdf::13                     0                       # What read queue length does an incoming req see
system.mem_ctrls1.rdQLenPdf::14                     0                       # What read queue length does an incoming req see
system.mem_ctrls1.rdQLenPdf::15                     0                       # What read queue length does an incoming req see
system.mem_ctrls1.rdQLenPdf::16                     0                       # What read queue length does an incoming req see
system.mem_ctrls1.rdQLenPdf::17                     0                       # What read queue length does an incoming req see
system.mem_ctrls1.rdQLenPdf::18                     0                       # What read queue length does an incoming req see
system.mem_ctrls1.rdQLenPdf::19                     0                       # What read queue length does an incoming req see
system.mem_ctrls1.rdQLenPdf::20                     0                       # What read queue length does an incoming req see
system.mem_ctrls1.rdQLenPdf::21                     0                       # What read queue length does an incoming req see
system.mem_ctrls1.rdQLenPdf::22                     0                       # What read queue length does an incoming req see
system.mem_ctrls1.rdQLenPdf::23                     0                       # What read queue length does an incoming req see
system.mem_ctrls1.rdQLenPdf::24                     0                       # What read queue length does an incoming req see
system.mem_ctrls1.rdQLenPdf::25                     0                       # What read queue length does an incoming req see
system.mem_ctrls1.rdQLenPdf::26                     0                       # What read queue length does an incoming req see
system.mem_ctrls1.rdQLenPdf::27                     0                       # What read queue length does an incoming req see
system.mem_ctrls1.rdQLenPdf::28                     0                       # What read queue length does an incoming req see
system.mem_ctrls1.rdQLenPdf::29                     0                       # What read queue length does an incoming req see
system.mem_ctrls1.rdQLenPdf::30                     0                       # What read queue length does an incoming req see
system.mem_ctrls1.rdQLenPdf::31                     0                       # What read queue length does an incoming req see
system.mem_ctrls1.wrQLenPdf::0                      0                       # What write queue length does an incoming req see
system.mem_ctrls1.wrQLenPdf::1                      0                       # What write queue length does an incoming req see
system.mem_ctrls1.wrQLenPdf::2                      0                       # What write queue length does an incoming req see
system.mem_ctrls1.wrQLenPdf::3                      0                       # What write queue length does an incoming req see
system.mem_ctrls1.wrQLenPdf::4                      0                       # What write queue length does an incoming req see
system.mem_ctrls1.wrQLenPdf::5                      0                       # What write queue length does an incoming req see
system.mem_ctrls1.wrQLenPdf::6                      0                       # What write queue length does an incoming req see
system.mem_ctrls1.wrQLenPdf::7                      0                       # What write queue length does an incoming req see
system.mem_ctrls1.wrQLenPdf::8                      0                       # What write queue length does an incoming req see
system.mem_ctrls1.wrQLenPdf::9                      0                       # What write queue length does an incoming req see
system.mem_ctrls1.wrQLenPdf::10                     0                       # What write queue length does an incoming req see
system.mem_ctrls1.wrQLenPdf::11                     0                       # What write queue length does an incoming req see
system.mem_ctrls1.wrQLenPdf::12                     0                       # What write queue length does an incoming req see
system.mem_ctrls1.wrQLenPdf::13                     0                       # What write queue length does an incoming req see
system.mem_ctrls1.wrQLenPdf::14                     0                       # What write queue length does an incoming req see
system.mem_ctrls1.wrQLenPdf::15                  4282                       # What write queue length does an incoming req see
system.mem_ctrls1.wrQLenPdf::16                  4505                       # What write queue length does an incoming req see
system.mem_ctrls1.wrQLenPdf::17                 63475                       # What write queue length does an incoming req see
system.mem_ctrls1.wrQLenPdf::18                 63881                       # What write queue length does an incoming req see
system.mem_ctrls1.wrQLenPdf::19                 63893                       # What write queue length does an incoming req see
system.mem_ctrls1.wrQLenPdf::20                 63887                       # What write queue length does an incoming req see
system.mem_ctrls1.wrQLenPdf::21                 63930                       # What write queue length does an incoming req see
system.mem_ctrls1.wrQLenPdf::22                 63921                       # What write queue length does an incoming req see
system.mem_ctrls1.wrQLenPdf::23                 63923                       # What write queue length does an incoming req see
system.mem_ctrls1.wrQLenPdf::24                 63884                       # What write queue length does an incoming req see
system.mem_ctrls1.wrQLenPdf::25                 63853                       # What write queue length does an incoming req see
system.mem_ctrls1.wrQLenPdf::26                 63813                       # What write queue length does an incoming req see
system.mem_ctrls1.wrQLenPdf::27                 63797                       # What write queue length does an incoming req see
system.mem_ctrls1.wrQLenPdf::28                 63802                       # What write queue length does an incoming req see
system.mem_ctrls1.wrQLenPdf::29                 63798                       # What write queue length does an incoming req see
system.mem_ctrls1.wrQLenPdf::30                 63785                       # What write queue length does an incoming req see
system.mem_ctrls1.wrQLenPdf::31                 63784                       # What write queue length does an incoming req see
system.mem_ctrls1.wrQLenPdf::32                 63784                       # What write queue length does an incoming req see
system.mem_ctrls1.wrQLenPdf::33                    44                       # What write queue length does an incoming req see
system.mem_ctrls1.wrQLenPdf::34                    12                       # What write queue length does an incoming req see
system.mem_ctrls1.wrQLenPdf::35                     2                       # What write queue length does an incoming req see
system.mem_ctrls1.wrQLenPdf::36                     0                       # What write queue length does an incoming req see
system.mem_ctrls1.wrQLenPdf::37                     0                       # What write queue length does an incoming req see
system.mem_ctrls1.wrQLenPdf::38                     0                       # What write queue length does an incoming req see
system.mem_ctrls1.wrQLenPdf::39                     0                       # What write queue length does an incoming req see
system.mem_ctrls1.wrQLenPdf::40                     0                       # What write queue length does an incoming req see
system.mem_ctrls1.wrQLenPdf::41                     0                       # What write queue length does an incoming req see
system.mem_ctrls1.wrQLenPdf::42                     0                       # What write queue length does an incoming req see
system.mem_ctrls1.wrQLenPdf::43                     0                       # What write queue length does an incoming req see
system.mem_ctrls1.wrQLenPdf::44                     0                       # What write queue length does an incoming req see
system.mem_ctrls1.wrQLenPdf::45                     0                       # What write queue length does an incoming req see
system.mem_ctrls1.wrQLenPdf::46                     0                       # What write queue length does an incoming req see
system.mem_ctrls1.wrQLenPdf::47                     0                       # What write queue length does an incoming req see
system.mem_ctrls1.wrQLenPdf::48                     0                       # What write queue length does an incoming req see
system.mem_ctrls1.wrQLenPdf::49                     0                       # What write queue length does an incoming req see
system.mem_ctrls1.wrQLenPdf::50                     0                       # What write queue length does an incoming req see
system.mem_ctrls1.wrQLenPdf::51                     0                       # What write queue length does an incoming req see
system.mem_ctrls1.wrQLenPdf::52                     0                       # What write queue length does an incoming req see
system.mem_ctrls1.wrQLenPdf::53                     0                       # What write queue length does an incoming req see
system.mem_ctrls1.wrQLenPdf::54                     0                       # What write queue length does an incoming req see
system.mem_ctrls1.wrQLenPdf::55                     0                       # What write queue length does an incoming req see
system.mem_ctrls1.wrQLenPdf::56                     0                       # What write queue length does an incoming req see
system.mem_ctrls1.wrQLenPdf::57                     0                       # What write queue length does an incoming req see
system.mem_ctrls1.wrQLenPdf::58                     0                       # What write queue length does an incoming req see
system.mem_ctrls1.wrQLenPdf::59                     0                       # What write queue length does an incoming req see
system.mem_ctrls1.wrQLenPdf::60                     0                       # What write queue length does an incoming req see
system.mem_ctrls1.wrQLenPdf::61                     0                       # What write queue length does an incoming req see
system.mem_ctrls1.wrQLenPdf::62                     0                       # What write queue length does an incoming req see
system.mem_ctrls1.wrQLenPdf::63                     0                       # What write queue length does an incoming req see
system.mem_ctrls1.bytesPerActivate::samples       767813                       # Bytes accessed per row activation
system.mem_ctrls1.bytesPerActivate::mean   170.779000                       # Bytes accessed per row activation
system.mem_ctrls1.bytesPerActivate::gmean   118.555923                       # Bytes accessed per row activation
system.mem_ctrls1.bytesPerActivate::stdev   186.076067                       # Bytes accessed per row activation
system.mem_ctrls1.bytesPerActivate::0-127       399885     52.08%     52.08% # Bytes accessed per row activation
system.mem_ctrls1.bytesPerActivate::128-255       205880     26.81%     78.89% # Bytes accessed per row activation
system.mem_ctrls1.bytesPerActivate::256-383        67029      8.73%     87.62% # Bytes accessed per row activation
system.mem_ctrls1.bytesPerActivate::384-511        34190      4.45%     92.08% # Bytes accessed per row activation
system.mem_ctrls1.bytesPerActivate::512-639        31599      4.12%     96.19% # Bytes accessed per row activation
system.mem_ctrls1.bytesPerActivate::640-767         9603      1.25%     97.44% # Bytes accessed per row activation
system.mem_ctrls1.bytesPerActivate::768-895         5207      0.68%     98.12% # Bytes accessed per row activation
system.mem_ctrls1.bytesPerActivate::896-1023         3819      0.50%     98.62% # Bytes accessed per row activation
system.mem_ctrls1.bytesPerActivate::1024-1151        10601      1.38%    100.00% # Bytes accessed per row activation
system.mem_ctrls1.bytesPerActivate::total       767813                       # Bytes accessed per row activation
system.mem_ctrls1.rdPerTurnAround::samples        63784                       # Reads before turning the bus around for writes
system.mem_ctrls1.rdPerTurnAround::mean     15.972532                       # Reads before turning the bus around for writes
system.mem_ctrls1.rdPerTurnAround::stdev    11.560602                       # Reads before turning the bus around for writes
system.mem_ctrls1.rdPerTurnAround::0-63         63766     99.97%     99.97% # Reads before turning the bus around for writes
system.mem_ctrls1.rdPerTurnAround::64-127            4      0.01%     99.98% # Reads before turning the bus around for writes
system.mem_ctrls1.rdPerTurnAround::192-255            1      0.00%     99.98% # Reads before turning the bus around for writes
system.mem_ctrls1.rdPerTurnAround::256-319            1      0.00%     99.98% # Reads before turning the bus around for writes
system.mem_ctrls1.rdPerTurnAround::320-383            2      0.00%     99.98% # Reads before turning the bus around for writes
system.mem_ctrls1.rdPerTurnAround::576-639            1      0.00%     99.99% # Reads before turning the bus around for writes
system.mem_ctrls1.rdPerTurnAround::640-703            1      0.00%     99.99% # Reads before turning the bus around for writes
system.mem_ctrls1.rdPerTurnAround::704-767            1      0.00%     99.99% # Reads before turning the bus around for writes
system.mem_ctrls1.rdPerTurnAround::768-831            1      0.00%     99.99% # Reads before turning the bus around for writes
system.mem_ctrls1.rdPerTurnAround::960-1023            5      0.01%    100.00% # Reads before turning the bus around for writes
system.mem_ctrls1.rdPerTurnAround::1024-1087            1      0.00%    100.00% # Reads before turning the bus around for writes
system.mem_ctrls1.rdPerTurnAround::total        63784                       # Reads before turning the bus around for writes
system.mem_ctrls1.wrPerTurnAround::samples        63784                       # Writes before turning the bus around for reads
system.mem_ctrls1.wrPerTurnAround::mean     16.149019                       # Writes before turning the bus around for reads
system.mem_ctrls1.wrPerTurnAround::gmean    16.140216                       # Writes before turning the bus around for reads
system.mem_ctrls1.wrPerTurnAround::stdev     0.554771                       # Writes before turning the bus around for reads
system.mem_ctrls1.wrPerTurnAround::16           59318     93.00%     93.00% # Writes before turning the bus around for reads
system.mem_ctrls1.wrPerTurnAround::17              81      0.13%     93.13% # Writes before turning the bus around for reads
system.mem_ctrls1.wrPerTurnAround::18            3799      5.96%     99.08% # Writes before turning the bus around for reads
system.mem_ctrls1.wrPerTurnAround::19             527      0.83%     99.91% # Writes before turning the bus around for reads
system.mem_ctrls1.wrPerTurnAround::20              51      0.08%     99.99% # Writes before turning the bus around for reads
system.mem_ctrls1.wrPerTurnAround::21               7      0.01%    100.00% # Writes before turning the bus around for reads
system.mem_ctrls1.wrPerTurnAround::22               1      0.00%    100.00% # Writes before turning the bus around for reads
system.mem_ctrls1.wrPerTurnAround::total        63784                       # Writes before turning the bus around for reads
system.mem_ctrls1.totQLat                 15695225215                       # Total ticks spent queuing
system.mem_ctrls1.totMemAccLat            34797668965                       # Total ticks spent from burst creation until serviced by the DRAM
system.mem_ctrls1.totBusLat                5093985000                       # Total ticks spent in databus transfers
system.mem_ctrls1.avgQLat                    15405.65                       # Average queueing delay per DRAM burst
system.mem_ctrls1.avgBusLat                   5000.00                       # Average bus latency per DRAM burst
system.mem_ctrls1.avgMemAccLat               34155.65                       # Average memory access latency per DRAM burst
system.mem_ctrls1.avgRdBW                       27.11                       # Average DRAM read bandwidth in MiByte/s
system.mem_ctrls1.avgWrBW                       27.41                       # Average achieved write bandwidth in MiByte/s
system.mem_ctrls1.avgRdBWSys                    29.27                       # Average system read bandwidth in MiByte/s
system.mem_ctrls1.avgWrBWSys                    28.97                       # Average system write bandwidth in MiByte/s
system.mem_ctrls1.peakBW                     12800.00                       # Theoretical peak bandwidth in MiByte/s
system.mem_ctrls1.busUtil                        0.43                       # Data bus utilization in percentage
system.mem_ctrls1.busUtilRead                    0.21                       # Data bus utilization in percentage for reads
system.mem_ctrls1.busUtilWrite                   0.21                       # Data bus utilization in percentage for writes
system.mem_ctrls1.avgRdQLen                      1.00                       # Average read queue length when enqueuing
system.mem_ctrls1.avgWrQLen                     25.41                       # Average write queue length when enqueuing
system.mem_ctrls1.readRowHits                  629048                       # Number of row buffer hits during reads
system.mem_ctrls1.writeRowHits                 651989                       # Number of row buffer hits during writes
system.mem_ctrls1.readRowHitRate                61.74                       # Row buffer hit rate for reads
system.mem_ctrls1.writeRowHitRate               63.30                       # Row buffer hit rate for writes
system.mem_ctrls1.avgGap                   1098884.96                       # Average gap between requests
system.mem_ctrls1.pageHitRate                   62.52                       # Row buffer hit rate, read and write combined
system.mem_ctrls1_0.actEnergy              3032641080                       # Energy for activate commands per rank (pJ)
system.mem_ctrls1_0.preEnergy              1654714875                       # Energy for precharge commands per rank (pJ)
system.mem_ctrls1_0.readEnergy             4164966000                       # Energy for read commands per rank (pJ)
system.mem_ctrls1_0.writeEnergy            3531917520                       # Energy for write commands per rank (pJ)
system.mem_ctrls1_0.refreshEnergy        158160125760                       # Energy for refresh commands per rank (pJ)
system.mem_ctrls1_0.actBackEnergy        432693600885                       # Energy for active background per rank (pJ)
system.mem_ctrls1_0.preBackEnergy        1073339928750                       # Energy for precharge background per rank (pJ)
system.mem_ctrls1_0.totalEnergy          1676577894870                       # Total energy per rank (pJ)
system.mem_ctrls1_0.averagePower           692.373667                       # Core power per rank (mW)
system.mem_ctrls1_0.memoryStateTime::IDLE 1780803575251                       # Time in different power states
system.mem_ctrls1_0.memoryStateTime::REF  80317120000                       # Time in different power states
system.mem_ctrls1_0.memoryStateTime::PRE_PDN            0                       # Time in different power states
system.mem_ctrls1_0.memoryStateTime::ACT 544144931249                       # Time in different power states
system.mem_ctrls1_0.memoryStateTime::ACT_PDN            0                       # Time in different power states
system.mem_ctrls1_1.actEnergy              3033994320                       # Energy for activate commands per rank (pJ)
system.mem_ctrls1_1.preEnergy              1655453250                       # Energy for precharge commands per rank (pJ)
system.mem_ctrls1_1.readEnergy             4285764600                       # Energy for read commands per rank (pJ)
system.mem_ctrls1_1.writeEnergy            3562483680                       # Energy for write commands per rank (pJ)
system.mem_ctrls1_1.refreshEnergy        158160125760                       # Energy for refresh commands per rank (pJ)
system.mem_ctrls1_1.actBackEnergy        432766233990                       # Energy for active background per rank (pJ)
system.mem_ctrls1_1.preBackEnergy        1073276215500                       # Energy for precharge background per rank (pJ)
system.mem_ctrls1_1.totalEnergy          1676740271100                       # Total energy per rank (pJ)
system.mem_ctrls1_1.averagePower           692.440723                       # Core power per rank (mW)
system.mem_ctrls1_1.memoryStateTime::IDLE 1780744880999                       # Time in different power states
system.mem_ctrls1_1.memoryStateTime::REF  80317120000                       # Time in different power states
system.mem_ctrls1_1.memoryStateTime::PRE_PDN            0                       # Time in different power states
system.mem_ctrls1_1.memoryStateTime::ACT 544203782501                       # Time in different power states
system.mem_ctrls1_1.memoryStateTime::ACT_PDN            0                       # Time in different power states
system.cpu_voltage_domain.voltage                   1                       # Voltage in Volts
system.cpu_clk_domain.clock                       500                       # Clock period in ticks
system.cpu0.apic_clk_domain.clock                8000                       # Clock period in ticks
system.cpu0.numCycles                      4807069196                       # number of cpu cycles simulated
system.cpu0.numWorkItemsStarted                     0                       # number of work items this cpu started
system.cpu0.numWorkItemsCompleted                   0                       # number of work items this cpu completed
system.cpu0.kern.inst.arm                           0                       # number of arm instructions executed
system.cpu0.kern.inst.quiesce                       0                       # number of quiesce instructions executed
system.cpu0.committedInsts                 1297408873                       # Number of instructions committed
system.cpu0.committedOps                   2348645701                       # Number of ops (including micro ops) committed
system.cpu0.num_int_alu_accesses           1506675699                       # Number of integer alu accesses
system.cpu0.num_fp_alu_accesses            1130300403                       # Number of float alu accesses
system.cpu0.num_func_calls                     803538                       # number of times a function call or return occured
system.cpu0.num_conditional_control_insts    160858561                       # number of instructions that are conditional controls
system.cpu0.num_int_insts                  1506675699                       # number of integer instructions
system.cpu0.num_fp_insts                   1130300403                       # number of float instructions
system.cpu0.num_int_register_reads         2940054458                       # number of times the integer registers were read
system.cpu0.num_int_register_writes        1033756008                       # number of times the integer registers were written
system.cpu0.num_fp_register_reads          1382500491                       # number of times the floating registers were read
system.cpu0.num_fp_register_writes         1075410492                       # number of times the floating registers were written
system.cpu0.num_cc_register_reads           938954521                       # number of times the CC registers were read
system.cpu0.num_cc_register_writes          528038994                       # number of times the CC registers were written
system.cpu0.num_mem_refs                    388315852                       # number of memory refs
system.cpu0.num_load_insts                  349934465                       # Number of load instructions
system.cpu0.num_store_insts                  38381387                       # Number of store instructions
system.cpu0.num_idle_cycles              32506100.528430                       # Number of idle cycles
system.cpu0.num_busy_cycles              4774563095.471570                       # Number of busy cycles
system.cpu0.not_idle_fraction                0.993238                       # Percentage of non-idle cycles
system.cpu0.idle_fraction                    0.006762                       # Percentage of idle cycles
system.cpu0.Branches                        166252233                       # Number of branches fetched
system.cpu0.op_class::No_OpClass              3901331      0.17%      0.17% # Class of executed instruction
system.cpu0.op_class::IntAlu               1228733983     52.32%     52.48% # Class of executed instruction
system.cpu0.op_class::IntMult                 4265825      0.18%     52.66% # Class of executed instruction
system.cpu0.op_class::IntDiv                      692      0.00%     52.66% # Class of executed instruction
system.cpu0.op_class::FloatAdd              723444344     30.80%     83.47% # Class of executed instruction
system.cpu0.op_class::FloatCmp                      0      0.00%     83.47% # Class of executed instruction
system.cpu0.op_class::FloatCvt                      0      0.00%     83.47% # Class of executed instruction
system.cpu0.op_class::FloatMult                     0      0.00%     83.47% # Class of executed instruction
system.cpu0.op_class::FloatDiv                      0      0.00%     83.47% # Class of executed instruction
system.cpu0.op_class::FloatSqrt                     0      0.00%     83.47% # Class of executed instruction
system.cpu0.op_class::SimdAdd                       0      0.00%     83.47% # Class of executed instruction
system.cpu0.op_class::SimdAddAcc                    0      0.00%     83.47% # Class of executed instruction
system.cpu0.op_class::SimdAlu                       0      0.00%     83.47% # Class of executed instruction
system.cpu0.op_class::SimdCmp                       0      0.00%     83.47% # Class of executed instruction
system.cpu0.op_class::SimdCvt                       0      0.00%     83.47% # Class of executed instruction
system.cpu0.op_class::SimdMisc                      0      0.00%     83.47% # Class of executed instruction
system.cpu0.op_class::SimdMult                      0      0.00%     83.47% # Class of executed instruction
system.cpu0.op_class::SimdMultAcc                   0      0.00%     83.47% # Class of executed instruction
system.cpu0.op_class::SimdShift                     0      0.00%     83.47% # Class of executed instruction
system.cpu0.op_class::SimdShiftAcc                  0      0.00%     83.47% # Class of executed instruction
system.cpu0.op_class::SimdSqrt                      0      0.00%     83.47% # Class of executed instruction
system.cpu0.op_class::SimdFloatAdd                  0      0.00%     83.47% # Class of executed instruction
system.cpu0.op_class::SimdFloatAlu                  0      0.00%     83.47% # Class of executed instruction
system.cpu0.op_class::SimdFloatCmp                  0      0.00%     83.47% # Class of executed instruction
system.cpu0.op_class::SimdFloatCvt                  0      0.00%     83.47% # Class of executed instruction
system.cpu0.op_class::SimdFloatDiv                  0      0.00%     83.47% # Class of executed instruction
system.cpu0.op_class::SimdFloatMisc                 0      0.00%     83.47% # Class of executed instruction
system.cpu0.op_class::SimdFloatMult                 0      0.00%     83.47% # Class of executed instruction
system.cpu0.op_class::SimdFloatMultAcc              0      0.00%     83.47% # Class of executed instruction
system.cpu0.op_class::SimdFloatSqrt                 0      0.00%     83.47% # Class of executed instruction
system.cpu0.op_class::MemRead               349934465     14.90%     98.37% # Class of executed instruction
system.cpu0.op_class::MemWrite               38381387      1.63%    100.00% # Class of executed instruction
system.cpu0.op_class::IprAccess                     0      0.00%    100.00% # Class of executed instruction
system.cpu0.op_class::InstPrefetch                  0      0.00%    100.00% # Class of executed instruction
system.cpu0.op_class::total                2348662027                       # Class of executed instruction
system.cpu1.apic_clk_domain.clock                8000                       # Clock period in ticks
system.cpu1.numCycles                      4810234117                       # number of cpu cycles simulated
system.cpu1.numWorkItemsStarted                     0                       # number of work items this cpu started
system.cpu1.numWorkItemsCompleted                   0                       # number of work items this cpu completed
system.cpu1.kern.inst.arm                           0                       # number of arm instructions executed
system.cpu1.kern.inst.quiesce                       0                       # number of quiesce instructions executed
system.cpu1.committedInsts                    5199123                       # Number of instructions committed
system.cpu1.committedOps                     10431214                       # Number of ops (including micro ops) committed
system.cpu1.num_int_alu_accesses             10244869                       # Number of integer alu accesses
system.cpu1.num_fp_alu_accesses                  1893                       # Number of float alu accesses
system.cpu1.num_func_calls                     265505                       # number of times a function call or return occured
system.cpu1.num_conditional_control_insts       906716                       # number of instructions that are conditional controls
system.cpu1.num_int_insts                    10244869                       # number of integer instructions
system.cpu1.num_fp_insts                         1893                       # number of float instructions
system.cpu1.num_int_register_reads           20213065                       # number of times the integer registers were read
system.cpu1.num_int_register_writes           8336476                       # number of times the integer registers were written
system.cpu1.num_fp_register_reads                3183                       # number of times the floating registers were read
system.cpu1.num_fp_register_writes               1511                       # number of times the floating registers were written
system.cpu1.num_cc_register_reads             6711722                       # number of times the CC registers were read
system.cpu1.num_cc_register_writes            3567207                       # number of times the CC registers were written
system.cpu1.num_mem_refs                      2289338                       # number of memory refs
system.cpu1.num_load_insts                    1488178                       # Number of load instructions
system.cpu1.num_store_insts                    801160                       # Number of store instructions
system.cpu1.num_idle_cycles              4771830443.914184                       # Number of idle cycles
system.cpu1.num_busy_cycles              38403673.085817                       # Number of busy cycles
system.cpu1.not_idle_fraction                0.007984                       # Percentage of non-idle cycles
system.cpu1.idle_fraction                    0.992016                       # Percentage of idle cycles
system.cpu1.Branches                          1224115                       # Number of branches fetched
system.cpu1.op_class::No_OpClass                75912      0.73%      0.73% # Class of executed instruction
system.cpu1.op_class::IntAlu                  8030144     76.98%     77.71% # Class of executed instruction
system.cpu1.op_class::IntMult                   11838      0.11%     77.82% # Class of executed instruction
system.cpu1.op_class::IntDiv                    22637      0.22%     78.04% # Class of executed instruction
system.cpu1.op_class::FloatAdd                   1434      0.01%     78.05% # Class of executed instruction
system.cpu1.op_class::FloatCmp                      0      0.00%     78.05% # Class of executed instruction
system.cpu1.op_class::FloatCvt                      0      0.00%     78.05% # Class of executed instruction
system.cpu1.op_class::FloatMult                     0      0.00%     78.05% # Class of executed instruction
system.cpu1.op_class::FloatDiv                      0      0.00%     78.05% # Class of executed instruction
system.cpu1.op_class::FloatSqrt                     0      0.00%     78.05% # Class of executed instruction
system.cpu1.op_class::SimdAdd                       0      0.00%     78.05% # Class of executed instruction
system.cpu1.op_class::SimdAddAcc                    0      0.00%     78.05% # Class of executed instruction
system.cpu1.op_class::SimdAlu                       0      0.00%     78.05% # Class of executed instruction
system.cpu1.op_class::SimdCmp                       0      0.00%     78.05% # Class of executed instruction
system.cpu1.op_class::SimdCvt                       0      0.00%     78.05% # Class of executed instruction
system.cpu1.op_class::SimdMisc                      0      0.00%     78.05% # Class of executed instruction
system.cpu1.op_class::SimdMult                      0      0.00%     78.05% # Class of executed instruction
system.cpu1.op_class::SimdMultAcc                   0      0.00%     78.05% # Class of executed instruction
system.cpu1.op_class::SimdShift                     0      0.00%     78.05% # Class of executed instruction
system.cpu1.op_class::SimdShiftAcc                  0      0.00%     78.05% # Class of executed instruction
system.cpu1.op_class::SimdSqrt                      0      0.00%     78.05% # Class of executed instruction
system.cpu1.op_class::SimdFloatAdd                  0      0.00%     78.05% # Class of executed instruction
system.cpu1.op_class::SimdFloatAlu                  0      0.00%     78.05% # Class of executed instruction
system.cpu1.op_class::SimdFloatCmp                  0      0.00%     78.05% # Class of executed instruction
system.cpu1.op_class::SimdFloatCvt                  0      0.00%     78.05% # Class of executed instruction
system.cpu1.op_class::SimdFloatDiv                  0      0.00%     78.05% # Class of executed instruction
system.cpu1.op_class::SimdFloatMisc                 0      0.00%     78.05% # Class of executed instruction
system.cpu1.op_class::SimdFloatMult                 0      0.00%     78.05% # Class of executed instruction
system.cpu1.op_class::SimdFloatMultAcc              0      0.00%     78.05% # Class of executed instruction
system.cpu1.op_class::SimdFloatSqrt                 0      0.00%     78.05% # Class of executed instruction
system.cpu1.op_class::MemRead                 1488178     14.27%     92.32% # Class of executed instruction
system.cpu1.op_class::MemWrite                 801160      7.68%    100.00% # Class of executed instruction
system.cpu1.op_class::IprAccess                     0      0.00%    100.00% # Class of executed instruction
system.cpu1.op_class::InstPrefetch                  0      0.00%    100.00% # Class of executed instruction
system.cpu1.op_class::total                  10431303                       # Class of executed instruction
system.cpu2.apic_clk_domain.clock                8000                       # Clock period in ticks
system.cpu2.numCycles                      4811314543                       # number of cpu cycles simulated
system.cpu2.numWorkItemsStarted                     0                       # number of work items this cpu started
system.cpu2.numWorkItemsCompleted                   0                       # number of work items this cpu completed
[...]
system.ruby.ST.Directory.miss_type_mach_latency_hist_seqr::total      1063604                      
system.ruby.IFETCH.L1Cache.miss_type_mach_latency_hist_seqr::bucket_size           16                      
system.ruby.IFETCH.L1Cache.miss_type_mach_latency_hist_seqr::max_bucket          159                      
system.ruby.IFETCH.L1Cache.miss_type_mach_latency_hist_seqr::samples       875096                      
system.ruby.IFETCH.L1Cache.miss_type_mach_latency_hist_seqr::mean    45.723226                      
system.ruby.IFETCH.L1Cache.miss_type_mach_latency_hist_seqr::gmean    45.697370                      
system.ruby.IFETCH.L1Cache.miss_type_mach_latency_hist_seqr::stdev     1.571293                      
system.ruby.IFETCH.L1Cache.miss_type_mach_latency_hist_seqr |           0      0.00%      0.00% |           0      0.00%      0.00% |      719928     82.27%     82.27% |      155162     17.73%    100.00% |           2      0.00%    100.00% |           1      0.00%    100.00% |           2      0.00%    100.00% |           1      0.00%    100.00% |           0      0.00%    100.00% |           0      0.00%    100.00%
system.ruby.IFETCH.L1Cache.miss_type_mach_latency_hist_seqr::total       875096                      
system.ruby.IFETCH.Directory.miss_type_mach_latency_hist_seqr::bucket_size          128                      
system.ruby.IFETCH.Directory.miss_type_mach_latency_hist_seqr::max_bucket         1279                      
system.ruby.IFETCH.Directory.miss_type_mach_latency_hist_seqr::samples       428719                      
system.ruby.IFETCH.Directory.miss_type_mach_latency_hist_seqr::mean   104.248414                      
system.ruby.IFETCH.Directory.miss_type_mach_latency_hist_seqr::gmean    87.436593                      
system.ruby.IFETCH.Directory.miss_type_mach_latency_hist_seqr::stdev    72.638581                      
system.ruby.IFETCH.Directory.miss_type_mach_latency_hist_seqr |      354705     82.74%     82.74% |       56795     13.25%     95.98% |       12561      2.93%     98.91% |        1736      0.40%     99.32% |        2216      0.52%     99.84% |         602      0.14%     99.98% |          47      0.01%     99.99% |          54      0.01%    100.00% |           3      0.00%    100.00% |           0      0.00%    100.00%
system.ruby.IFETCH.Directory.miss_type_mach_latency_hist_seqr::total       428719                      
system.ruby.RMW_Read.L1Cache.miss_type_mach_latency_hist_seqr::bucket_size            8                      
system.ruby.RMW_Read.L1Cache.miss_type_mach_latency_hist_seqr::max_bucket           79                      
system.ruby.RMW_Read.L1Cache.miss_type_mach_latency_hist_seqr::samples         1598                      
system.ruby.RMW_Read.L1Cache.miss_type_mach_latency_hist_seqr::mean    46.697121                      
system.ruby.RMW_Read.L1Cache.miss_type_mach_latency_hist_seqr::gmean    46.652992                      
system.ruby.RMW_Read.L1Cache.miss_type_mach_latency_hist_seqr::stdev     2.053359                      
system.ruby.RMW_Read.L1Cache.miss_type_mach_latency_hist_seqr |           0      0.00%      0.00% |           0      0.00%      0.00% |           0      0.00%      0.00% |           0      0.00%      0.00% |           0      0.00%      0.00% |         928     58.07%     58.07% |         668     41.80%     99.87% |           2      0.13%    100.00% |           0      0.00%    100.00% |           0      0.00%    100.00%
system.ruby.RMW_Read.L1Cache.miss_type_mach_latency_hist_seqr::total         1598                      
system.ruby.RMW_Read.Directory.miss_type_mach_latency_hist_seqr::bucket_size          128                      
system.ruby.RMW_Read.Directory.miss_type_mach_latency_hist_seqr::max_bucket         1279                      
system.ruby.RMW_Read.Directory.miss_type_mach_latency_hist_seqr::samples        14365                      
system.ruby.RMW_Read.Directory.miss_type_mach_latency_hist_seqr::mean   127.705465                      
system.ruby.RMW_Read.Directory.miss_type_mach_latency_hist_seqr::gmean   111.608304                      
system.ruby.RMW_Read.Directory.miss_type_mach_latency_hist_seqr::stdev    77.009844                      
system.ruby.RMW_Read.Directory.miss_type_mach_latency_hist_seqr |       10516     73.21%     73.21% |        2971     20.68%     93.89% |         672      4.68%     98.57% |          73      0.51%     99.07% |          83      0.58%     99.65% |          44      0.31%     99.96% |           5      0.03%     99.99% |           1      0.01%    100.00% |           0      0.00%    100.00% |           0      0.00%    100.00%
system.ruby.RMW_Read.Directory.miss_type_mach_latency_hist_seqr::total        14365                      
system.ruby.Locked_RMW_Read.L1Cache.miss_type_mach_latency_hist_seqr::bucket_size            8                      
system.ruby.Locked_RMW_Read.L1Cache.miss_type_mach_latency_hist_seqr::max_bucket           79                      
system.ruby.Locked_RMW_Read.L1Cache.miss_type_mach_latency_hist_seqr::samples         2811                      
system.ruby.Locked_RMW_Read.L1Cache.miss_type_mach_latency_hist_seqr::mean    47.043401                      
system.ruby.Locked_RMW_Read.L1Cache.miss_type_mach_latency_hist_seqr::gmean    46.999948                      
system.ruby.Locked_RMW_Read.L1Cache.miss_type_mach_latency_hist_seqr::stdev     2.022710                      
system.ruby.Locked_RMW_Read.L1Cache.miss_type_mach_latency_hist_seqr |           0      0.00%      0.00% |           0      0.00%      0.00% |           0      0.00%      0.00% |           0      0.00%      0.00% |           0      0.00%      0.00% |        1387     49.34%     49.34% |        1424     50.66%    100.00% |           0      0.00%    100.00% |           0      0.00%    100.00% |           0      0.00%    100.00%
system.ruby.Locked_RMW_Read.L1Cache.miss_type_mach_latency_hist_seqr::total         2811                      
system.ruby.Locked_RMW_Read.Directory.miss_type_mach_latency_hist_seqr::bucket_size          128                      
system.ruby.Locked_RMW_Read.Directory.miss_type_mach_latency_hist_seqr::max_bucket         1279                      
system.ruby.Locked_RMW_Read.Directory.miss_type_mach_latency_hist_seqr::samples        30631                      
system.ruby.Locked_RMW_Read.Directory.miss_type_mach_latency_hist_seqr::mean   129.205641                      
system.ruby.Locked_RMW_Read.Directory.miss_type_mach_latency_hist_seqr::gmean   118.705168                      
system.ruby.Locked_RMW_Read.Directory.miss_type_mach_latency_hist_seqr::stdev    72.745689                      
system.ruby.Locked_RMW_Read.Directory.miss_type_mach_latency_hist_seqr |       24408     79.68%     79.68% |        4230     13.81%     93.49% |        1510      4.93%     98.42% |         160      0.52%     98.95% |         244      0.80%     99.74% |          69      0.23%     99.97% |           9      0.03%    100.00% |           1      0.00%    100.00% |           0      0.00%    100.00% |           0      0.00%    100.00%
system.ruby.Locked_RMW_Read.Directory.miss_type_mach_latency_hist_seqr::total        30631                      
system.ruby.Directory_Controller.GETX    |     1819010     52.38%     52.38% |     1653947     47.62%    100.00%
system.ruby.Directory_Controller.GETX::total      3472957                      
system.ruby.Directory_Controller.PUTX    |     1539334     53.17%     53.17% |     1356048     46.83%    100.00%
system.ruby.Directory_Controller.PUTX::total      2895382                      
system.ruby.Directory_Controller.PUTX_NotOwner |           3    100.00%    100.00% |           0      0.00%    100.00%
system.ruby.Directory_Controller.PUTX_NotOwner::total            3                      
system.ruby.Directory_Controller.DMA_READ |       11526     50.17%     50.17% |       11447     49.83%    100.00%
system.ruby.Directory_Controller.DMA_READ::total        22973                      
system.ruby.Directory_Controller.DMA_WRITE |          64     50.00%     50.00% |          64     50.00%    100.00%
system.ruby.Directory_Controller.DMA_WRITE::total          128                      
system.ruby.Directory_Controller.Memory_Data |     1550833     53.14%     53.14% |     1367511     46.86%    100.00%
system.ruby.Directory_Controller.Memory_Data::total      2918344                      
system.ruby.Directory_Controller.Memory_Ack |     1539398     53.17%     53.17% |     1356112     46.83%    100.00%
system.ruby.Directory_Controller.Memory_Ack::total      2895510                      
system.ruby.Directory_Controller.I.GETX  |     1539344     53.16%     53.16% |     1356080     46.84%    100.00%
system.ruby.Directory_Controller.I.GETX::total      2895424                      
system.ruby.Directory_Controller.I.DMA_READ |       11489     50.13%     50.13% |       11431     49.87%    100.00%
system.ruby.Directory_Controller.I.DMA_READ::total        22920                      
system.ruby.Directory_Controller.I.DMA_WRITE |          64     50.00%     50.00% |          64     50.00%    100.00%
system.ruby.Directory_Controller.I.DMA_WRITE::total          128                      
system.ruby.Directory_Controller.M.GETX  |      279643     48.42%     48.42% |      297834     51.58%    100.00%
system.ruby.Directory_Controller.M.GETX::total       577477                      
system.ruby.Directory_Controller.M.PUTX  |     1539297     53.16%     53.16% |     1356032     46.84%    100.00%
system.ruby.Directory_Controller.M.PUTX::total      2895329                      
system.ruby.Directory_Controller.M.PUTX_NotOwner |           3    100.00%    100.00% |           0      0.00%    100.00%
system.ruby.Directory_Controller.M.PUTX_NotOwner::total            3                      
system.ruby.Directory_Controller.M.DMA_READ |          37     69.81%     69.81% |          16     30.19%    100.00%
system.ruby.Directory_Controller.M.DMA_READ::total           53                      
system.ruby.Directory_Controller.M_DRD.PUTX |          37     69.81%     69.81% |          16     30.19%    100.00%
system.ruby.Directory_Controller.M_DRD.PUTX::total           53                      
system.ruby.Directory_Controller.M_DRDI.Memory_Ack |          37     69.81%     69.81% |          16     30.19%    100.00%
system.ruby.Directory_Controller.M_DRDI.Memory_Ack::total           53                      
system.ruby.Directory_Controller.IM.GETX |          23     42.59%     42.59% |          31     57.41%    100.00%
system.ruby.Directory_Controller.IM.GETX::total           54                      
system.ruby.Directory_Controller.IM.Memory_Data |     1539344     53.16%     53.16% |     1356080     46.84%    100.00%
system.ruby.Directory_Controller.IM.Memory_Data::total      2895424                      
system.ruby.Directory_Controller.MI.GETX |           0      0.00%      0.00% |           2    100.00%    100.00%
system.ruby.Directory_Controller.MI.GETX::total            2                      
system.ruby.Directory_Controller.MI.Memory_Ack |     1539297     53.16%     53.16% |     1356032     46.84%    100.00%
system.ruby.Directory_Controller.MI.Memory_Ack::total      2895329                      
system.ruby.Directory_Controller.ID.Memory_Data |       11489     50.13%     50.13% |       11431     49.87%    100.00%
system.ruby.Directory_Controller.ID.Memory_Data::total        22920                      
system.ruby.Directory_Controller.ID_W.Memory_Ack |          64     50.00%     50.00% |          64     50.00%    100.00%
system.ruby.Directory_Controller.ID_W.Memory_Ack::total          128                      
system.ruby.DMA_Controller.ReadRequest   |       22973    100.00%    100.00% |           0      0.00%    100.00%
system.ruby.DMA_Controller.ReadRequest::total        22973                      
system.ruby.DMA_Controller.WriteRequest  |         128    100.00%    100.00% |           0      0.00%    100.00%
system.ruby.DMA_Controller.WriteRequest::total          128                      
system.ruby.DMA_Controller.Data          |       22973    100.00%    100.00% |           0      0.00%    100.00%
system.ruby.DMA_Controller.Data::total          22973                      
system.ruby.DMA_Controller.Ack           |         128    100.00%    100.00% |           0      0.00%    100.00%
system.ruby.DMA_Controller.Ack::total             128                      
system.ruby.DMA_Controller.READY.ReadRequest |       22973    100.00%    100.00% |           0      0.00%    100.00%
system.ruby.DMA_Controller.READY.ReadRequest::total        22973                      
system.ruby.DMA_Controller.READY.WriteRequest |         128    100.00%    100.00% |           0      0.00%    100.00%
system.ruby.DMA_Controller.READY.WriteRequest::total          128                      
system.ruby.DMA_Controller.BUSY_RD.Data  |       22973    100.00%    100.00% |           0      0.00%    100.00%
system.ruby.DMA_Controller.BUSY_RD.Data::total        22973                      
system.ruby.DMA_Controller.BUSY_WR.Ack   |         128    100.00%    100.00% |           0      0.00%    100.00%
system.ruby.DMA_Controller.BUSY_WR.Ack::total          128                      
system.ruby.L1Cache_Controller.Load      |   354351968     93.55%     93.55% |    22557810      5.96%     99.50% |      877085      0.23%     99.74% |     1001617      0.26%    100.00%
system.ruby.L1Cache_Controller.Load::total    378788480                      
system.ruby.L1Cache_Controller.Ifetch    |  1865435157     94.36%     94.36% |   101781329      5.15%     99.50% |     4162790      0.21%     99.72% |     5632237      0.28%    100.00%
system.ruby.L1Cache_Controller.Ifetch::total   1977011513                      
system.ruby.L1Cache_Controller.Store     |    40095944     73.59%     73.59% |    12922500     23.72%     97.31% |      641342      1.18%     98.49% |      825432      1.51%    100.00%
system.ruby.L1Cache_Controller.Store::total     54485218                      
system.ruby.L1Cache_Controller.Data      |     2332564     67.16%     67.16% |      651615     18.76%     85.93% |      235161      6.77%     92.70% |      253561      7.30%    100.00%
system.ruby.L1Cache_Controller.Data::total      3472901                      
system.ruby.L1Cache_Controller.Fwd_GETX  |       81741     14.15%     14.15% |      164692     28.52%     42.67% |      171026     29.62%     72.29% |      160018     27.71%    100.00%
system.ruby.L1Cache_Controller.Fwd_GETX::total       577477                      
system.ruby.L1Cache_Controller.Inv       |          24     22.64%     22.64% |          62     58.49%     81.13% |           2      1.89%     83.02% |          18     16.98%    100.00%
system.ruby.L1Cache_Controller.Inv::total          106                      
system.ruby.L1Cache_Controller.Replacement |     2286467     76.45%     76.45% |      509035     17.02%     93.47% |       83648      2.80%     96.26% |      111744      3.74%    100.00%
system.ruby.L1Cache_Controller.Replacement::total      2990894                      
system.ruby.L1Cache_Controller.Writeback_Ack |     2250697     77.73%     77.73% |      487530     16.84%     94.57% |       63292      2.19%     96.76% |       93863      3.24%    100.00%
system.ruby.L1Cache_Controller.Writeback_Ack::total      2895382                      
system.ruby.L1Cache_Controller.Writeback_Nack |           0      0.00%      0.00% |           2     66.67%     66.67% |           1     33.33%    100.00% |           0      0.00%    100.00%
system.ruby.L1Cache_Controller.Writeback_Nack::total            3                      
system.ruby.L1Cache_Controller.I.Load    |     1654330     78.22%     78.22% |      321235     15.19%     93.41% |       57614      2.72%     96.13% |       81808      3.87%    100.00%
system.ruby.L1Cache_Controller.I.Load::total      2114987                      
system.ruby.L1Cache_Controller.I.Ifetch  |      188886     25.20%     25.20% |      238833     31.87%     57.07% |      165239     22.05%     79.12% |      156481     20.88%    100.00%
system.ruby.L1Cache_Controller.I.Ifetch::total       749439                      
system.ruby.L1Cache_Controller.I.Store   |      489348     80.42%     80.42% |       91547     15.05%     95.47% |       12308      2.02%     97.49% |       15272      2.51%    100.00%
system.ruby.L1Cache_Controller.I.Store::total       608475                      
system.ruby.L1Cache_Controller.I.Replacement |       35782     37.44%     37.44% |       21534     22.53%     59.98% |       20356     21.30%     81.28% |       17890     18.72%    100.00%
system.ruby.L1Cache_Controller.I.Replacement::total        95562                      
system.ruby.L1Cache_Controller.II.Writeback_Nack |           0      0.00%      0.00% |           2     66.67%     66.67% |           1     33.33%    100.00% |           0      0.00%    100.00%
system.ruby.L1Cache_Controller.II.Writeback_Nack::total            3                      
system.ruby.L1Cache_Controller.M.Load    |   352697638     93.63%     93.63% |    22236575      5.90%     99.54% |      819471      0.22%     99.76% |      919809      0.24%    100.00%
system.ruby.L1Cache_Controller.M.Load::total    376673493                      
system.ruby.L1Cache_Controller.M.Ifetch  |  1865246271     94.38%     94.38% |   101542496      5.14%     99.52% |     3997551      0.20%     99.72% |     5475756      0.28%    100.00%
system.ruby.L1Cache_Controller.M.Ifetch::total   1976262074                      
system.ruby.L1Cache_Controller.M.Store   |    39606596     73.51%     73.51% |    12830953     23.82%     97.33% |      629034      1.17%     98.50% |      810160      1.50%    100.00%
system.ruby.L1Cache_Controller.M.Store::total     53876743                      
system.ruby.L1Cache_Controller.M.Fwd_GETX |       81741     14.15%     14.15% |      164690     28.52%     42.67% |      171025     29.62%     72.29% |      160018     27.71%    100.00%
system.ruby.L1Cache_Controller.M.Fwd_GETX::total       577474                      
system.ruby.L1Cache_Controller.M.Inv     |          12     22.64%     22.64% |          31     58.49%     81.13% |           1      1.89%     83.02% |           9     16.98%    100.00%
system.ruby.L1Cache_Controller.M.Inv::total           53                      
system.ruby.L1Cache_Controller.M.Replacement |     2250685     77.73%     77.73% |      487501     16.84%     94.57% |       63292      2.19%     96.76% |       93854      3.24%    100.00%
system.ruby.L1Cache_Controller.M.Replacement::total      2895332                      
system.ruby.L1Cache_Controller.MI.Fwd_GETX |           0      0.00%      0.00% |           2     66.67%     66.67% |           1     33.33%    100.00% |           0      0.00%    100.00%
system.ruby.L1Cache_Controller.MI.Fwd_GETX::total            3                      
system.ruby.L1Cache_Controller.MI.Inv    |          12     22.64%     22.64% |          31     58.49%     81.13% |           1      1.89%     83.02% |           9     16.98%    100.00%
system.ruby.L1Cache_Controller.MI.Inv::total           53                      
system.ruby.L1Cache_Controller.MI.Writeback_Ack |     2250697     77.73%     77.73% |      487530     16.84%     94.57% |       63292      2.19%     96.76% |       93863      3.24%    100.00%
system.ruby.L1Cache_Controller.MI.Writeback_Ack::total      2895382                      
system.ruby.L1Cache_Controller.IS.Data   |     1843216     64.35%     64.35% |      560068     19.55%     83.90% |      222853      7.78%     91.68% |      238289      8.32%    100.00%
system.ruby.L1Cache_Controller.IS.Data::total      2864426                      
system.ruby.L1Cache_Controller.IM.Data   |      489348     80.42%     80.42% |       91547     15.05%     95.47% |       12308      2.02%     97.49% |       15272      2.51%    100.00%
system.ruby.L1Cache_Controller.IM.Data::total       608475                      

---------- End Simulation Statistics   ----------
