
---------- Begin Simulation Statistics ----------
sim_seconds                                  1.117727                       # Number of seconds simulated
sim_ticks                                1117726765000                       # Number of ticks simulated
final_tick                               53673764377001                       # Number of ticks from beginning of simulation (restored from checkpoints and never reset)
sim_freq                                 1000000000000                       # Frequency of simulated ticks
host_inst_rate                                 143112                       # Simulator instruction rate (inst/s)
host_op_rate                                   191431                       # Simulator op (including micro ops) rate (op/s)
host_tick_rate                              295509616                       # Simulator tick rate (ticks/s)
host_mem_usage                                1719340                       # Number of bytes of host memory used
host_seconds                                  3782.37                       # Real time elapsed on the host
sim_insts                                   541302499                       # Number of instructions simulated
sim_ops                                     724062862                       # Number of ops (including micro ops) simulated
system.voltage_domain.voltage                       1                       # Voltage in Volts
system.clk_domain.clock                          1000                       # Clock period in ticks
system.mem_ctrls.bytes_read::ruby.dir_cntrl0    172869248                       # Number of bytes read from this memory
system.mem_ctrls.bytes_read::total          172869248                       # Number of bytes read from this memory
system.mem_ctrls.bytes_written::ruby.dir_cntrl0    101842944                       # Number of bytes written to this memory
system.mem_ctrls.bytes_written::total       101842944                       # Number of bytes written to this memory
system.mem_ctrls.num_reads::ruby.dir_cntrl0      1350541                       # Number of read requests responded to by this memory
system.mem_ctrls.num_reads::total             1350541                       # Number of read requests responded to by this memory
system.mem_ctrls.num_writes::ruby.dir_cntrl0       795648                       # Number of write requests responded to by this memory
system.mem_ctrls.num_writes::total             795648                       # Number of write requests responded to by this memory
system.mem_ctrls.bw_read::ruby.dir_cntrl0    154661455                       # Total read bandwidth from this memory (bytes/s)
system.mem_ctrls.bw_read::total             154661455                       # Total read bandwidth from this memory (bytes/s)
system.mem_ctrls.bw_write::ruby.dir_cntrl0     91116136                       # Write bandwidth from this memory (bytes/s)
system.mem_ctrls.bw_write::total             91116136                       # Write bandwidth from this memory (bytes/s)
system.mem_ctrls.bw_total::ruby.dir_cntrl0    245777591                       # Total bandwidth to/from this memory (bytes/s)
system.mem_ctrls.bw_total::total            245777591                       # Total bandwidth to/from this memory (bytes/s)
system.mem_ctrls.readReqs                     1350541                       # Number of read requests accepted
system.mem_ctrls.writeReqs                     795648                       # Number of write requests accepted
system.mem_ctrls.readBursts                   2701082                       # Number of DRAM read bursts, including those serviced by the write queue
system.mem_ctrls.writeBursts                  1591296                       # Number of DRAM write bursts, including those merged in the write queue
system.mem_ctrls.bytesReadDRAM              172822976                       # Total number of bytes read from DRAM
system.mem_ctrls.bytesReadWrQ                   46272                       # Total number of bytes read from write queue
system.mem_ctrls.bytesWritten               101842816                       # Total number of bytes written to DRAM
system.mem_ctrls.bytesReadSys               172869248                       # Total read bytes from the system interface side
system.mem_ctrls.bytesWrittenSys            101842944                       # Total written bytes from the system interface side
system.mem_ctrls.servicedByWrQ                    723                       # Number of DRAM read bursts serviced by the write queue
system.mem_ctrls.mergedWrBursts                     0                       # Number of DRAM write bursts merged with an existing one
system.mem_ctrls.neitherReadNorWriteReqs            0                       # Number of requests that are neither read nor write
system.mem_ctrls.perBankRdBursts::0            172106                       # Per bank write bursts
system.mem_ctrls.perBankRdBursts::1            172331                       # Per bank write bursts
system.mem_ctrls.perBankRdBursts::2            165358                       # Per bank write bursts
system.mem_ctrls.perBankRdBursts::3            167285                       # Per bank write bursts
system.mem_ctrls.perBankRdBursts::4            168766                       # Per bank write bursts
system.mem_ctrls.perBankRdBursts::5            168640                       # Per bank write bursts
system.mem_ctrls.perBankRdBursts::6            174111                       # Per bank write bursts
system.mem_ctrls.perBankRdBursts::7            167268                       # Per bank write bursts
system.mem_ctrls.perBankRdBursts::8            168832                       # Per bank write bursts
system.mem_ctrls.perBankRdBursts::9            168630                       # Per bank write bursts
system.mem_ctrls.perBankRdBursts::10           166730                       # Per bank write bursts
system.mem_ctrls.perBankRdBursts::11           166400                       # Per bank write bursts
system.mem_ctrls.perBankRdBursts::12           166105                       # Per bank write bursts
system.mem_ctrls.perBankRdBursts::13           168832                       # Per bank write bursts
system.mem_ctrls.perBankRdBursts::14           168781                       # Per bank write bursts
system.mem_ctrls.perBankRdBursts::15           170184                       # Per bank write bursts
system.mem_ctrls.perBankWrBursts::0            100522                       # Per bank write bursts
system.mem_ctrls.perBankWrBursts::1            102948                       # Per bank write bursts
system.mem_ctrls.perBankWrBursts::2             97716                       # Per bank write bursts
system.mem_ctrls.perBankWrBursts::3             98098                       # Per bank write bursts
system.mem_ctrls.perBankWrBursts::4             98092                       # Per bank write bursts
system.mem_ctrls.perBankWrBursts::5            100040                       # Per bank write bursts
system.mem_ctrls.perBankWrBursts::6            102760                       # Per bank write bursts
system.mem_ctrls.perBankWrBursts::7             98894                       # Per bank write bursts
system.mem_ctrls.perBankWrBursts::8            100960                       # Per bank write bursts
system.mem_ctrls.perBankWrBursts::9             99102                       # Per bank write bursts
system.mem_ctrls.perBankWrBursts::10            98966                       # Per bank write bursts
system.mem_ctrls.perBankWrBursts::11            98530                       # Per bank write bursts
system.mem_ctrls.perBankWrBursts::12            98264                       # Per bank write bursts
system.mem_ctrls.perBankWrBursts::13            98910                       # Per bank write bursts
system.mem_ctrls.perBankWrBursts::14            98868                       # Per bank write bursts
system.mem_ctrls.perBankWrBursts::15            98624                       # Per bank write bursts
system.mem_ctrls.numRdRetry                         0                       # Number of times read queue was full causing retry
system.mem_ctrls.numWrRetry                         0                       # Number of times write queue was full causing retry
system.mem_ctrls.totGap                  1117726738000                       # Total gap between requests
system.mem_ctrls.readPktSize::0                     0                       # Read request sizes (log2)
system.mem_ctrls.readPktSize::1                     0                       # Read request sizes (log2)
system.mem_ctrls.readPktSize::2                     0                       # Read request sizes (log2)
system.mem_ctrls.readPktSize::3                     0                       # Read request sizes (log2)
system.mem_ctrls.readPktSize::4                     0                       # Read request sizes (log2)
system.mem_ctrls.readPktSize::5                     0                       # Read request sizes (log2)
system.mem_ctrls.readPktSize::6               2701082                       # Read request sizes (log2)
system.mem_ctrls.writePktSize::0                    0                       # Write request sizes (log2)
system.mem_ctrls.writePktSize::1                    0                       # Write request sizes (log2)
system.mem_ctrls.writePktSize::2                    0                       # Write request sizes (log2)
system.mem_ctrls.writePktSize::3                    0                       # Write request sizes (log2)
system.mem_ctrls.writePktSize::4                    0                       # Write request sizes (log2)
system.mem_ctrls.writePktSize::5                    0                       # Write request sizes (log2)
system.mem_ctrls.writePktSize::6              1591296                       # Write request sizes (log2)
system.mem_ctrls.rdQLenPdf::0                 1343753                       # What read queue length does an incoming req see
system.mem_ctrls.rdQLenPdf::1                 1344454                       # What read queue length does an incoming req see
system.mem_ctrls.rdQLenPdf::2                    6426                       # What read queue length does an incoming req see
system.mem_ctrls.rdQLenPdf::3                    5716                       # What read queue length does an incoming req see
system.mem_ctrls.rdQLenPdf::4                       5                       # What read queue length does an incoming req see
system.mem_ctrls.rdQLenPdf::5                       5                       # What read queue length does an incoming req see
system.mem_ctrls.rdQLenPdf::6                       0                       # What read queue length does an incoming req see
system.mem_ctrls.rdQLenPdf::7                       0                       # What read queue length does an incoming req see
system.mem_ctrls.rdQLenPdf::8                       0                       # What read queue length does an incoming req see
system.mem_ctrls.rdQLenPdf::9                       0                       # What read queue length does an incoming req see
system.mem_ctrls.rdQLenPdf::10                      0                       # What read queue length does an incoming req see
system.mem_ctrls.rdQLenPdf::11                      0                       # What read queue length does an incoming req see
system.mem_ctrls.rdQLenPdf::12                      0                       # What read queue length does an incoming req see
system.mem_ctrls.rdQLenPdf::13                      0                       # What read queue length does an incoming req see
system.mem_ctrls.rdQLenPdf::14                      0                       # What read queue length does an incoming req see
system.mem_ctrls.rdQLenPdf::15                      0                       # What read queue length does an incoming req see
system.mem_ctrls.rdQLenPdf::16                      0                       # What read queue length does an incoming req see
system.mem_ctrls.rdQLenPdf::17                      0                       # What read queue length does an incoming req see
system.mem_ctrls.rdQLenPdf::18                      0                       # What read queue length does an incoming req see
system.mem_ctrls.rdQLenPdf::19                      0                       # What read queue length does an incoming req see
system.mem_ctrls.rdQLenPdf::20                      0                       # What read queue length does an incoming req see
system.mem_ctrls.rdQLenPdf::21                      0                       # What read queue length does an incoming req see
system.mem_ctrls.rdQLenPdf::22                      0                       # What read queue length does an incoming req see
system.mem_ctrls.rdQLenPdf::23                      0                       # What read queue length does an incoming req see
system.mem_ctrls.rdQLenPdf::24                      0                       # What read queue length does an incoming req see
system.mem_ctrls.rdQLenPdf::25                      0                       # What read queue length does an incoming req see
system.mem_ctrls.rdQLenPdf::26                      0                       # What read queue length does an incoming req see
system.mem_ctrls.rdQLenPdf::27                      0                       # What read queue length does an incoming req see
system.mem_ctrls.rdQLenPdf::28                      0                       # What read queue length does an incoming req see
system.mem_ctrls.rdQLenPdf::29                      0                       # What read queue length does an incoming req see
system.mem_ctrls.rdQLenPdf::30                      0                       # What read queue length does an incoming req see
system.mem_ctrls.rdQLenPdf::31                      0                       # What read queue length does an incoming req see
system.mem_ctrls.wrQLenPdf::0                       0                       # What write queue length does an incoming req see
system.mem_ctrls.wrQLenPdf::1                       0                       # What write queue length does an incoming req see
system.mem_ctrls.wrQLenPdf::2                       0                       # What write queue length does an incoming req see
system.mem_ctrls.wrQLenPdf::3                       0                       # What write queue length does an incoming req see
system.mem_ctrls.wrQLenPdf::4                       0                       # What write queue length does an incoming req see
system.mem_ctrls.wrQLenPdf::5                       0                       # What write queue length does an incoming req see
system.mem_ctrls.wrQLenPdf::6                       0                       # What write queue length does an incoming req see
system.mem_ctrls.wrQLenPdf::7                       0                       # What write queue length does an incoming req see
system.mem_ctrls.wrQLenPdf::8                       0                       # What write queue length does an incoming req see
system.mem_ctrls.wrQLenPdf::9                       0                       # What write queue length does an incoming req see
system.mem_ctrls.wrQLenPdf::10                      0                       # What write queue length does an incoming req see
system.mem_ctrls.wrQLenPdf::11                      0                       # What write queue length does an incoming req see
system.mem_ctrls.wrQLenPdf::12                      0                       # What write queue length does an incoming req see
system.mem_ctrls.wrQLenPdf::13                      0                       # What write queue length does an incoming req see
system.mem_ctrls.wrQLenPdf::14                      0                       # What write queue length does an incoming req see
system.mem_ctrls.wrQLenPdf::15                   1592                       # What write queue length does an incoming req see
system.mem_ctrls.wrQLenPdf::16                   1727                       # What write queue length does an incoming req see
system.mem_ctrls.wrQLenPdf::17                  85239                       # What write queue length does an incoming req see
system.mem_ctrls.wrQLenPdf::18                  98238                       # What write queue length does an incoming req see
system.mem_ctrls.wrQLenPdf::19                  99167                       # What write queue length does an incoming req see
system.mem_ctrls.wrQLenPdf::20                  99388                       # What write queue length does an incoming req see
system.mem_ctrls.wrQLenPdf::21                  99411                       # What write queue length does an incoming req see
system.mem_ctrls.wrQLenPdf::22                  99410                       # What write queue length does an incoming req see
system.mem_ctrls.wrQLenPdf::23                  99438                       # What write queue length does an incoming req see
system.mem_ctrls.wrQLenPdf::24                  99460                       # What write queue length does an incoming req see
system.mem_ctrls.wrQLenPdf::25                  99444                       # What write queue length does an incoming req see
system.mem_ctrls.wrQLenPdf::26                  99435                       # What write queue length does an incoming req see
system.mem_ctrls.wrQLenPdf::27                  99425                       # What write queue length does an incoming req see
system.mem_ctrls.wrQLenPdf::28                  99401                       # What write queue length does an incoming req see
system.mem_ctrls.wrQLenPdf::29                  99353                       # What write queue length does an incoming req see
system.mem_ctrls.wrQLenPdf::30                  99327                       # What write queue length does an incoming req see
system.mem_ctrls.wrQLenPdf::31                  99265                       # What write queue length does an incoming req see
system.mem_ctrls.wrQLenPdf::32                  99256                       # What write queue length does an incoming req see
system.mem_ctrls.wrQLenPdf::33                  13312                       # What write queue length does an incoming req see
system.mem_ctrls.wrQLenPdf::34                      6                       # What write queue length does an incoming req see
system.mem_ctrls.wrQLenPdf::35                      2                       # What write queue length does an incoming req see
system.mem_ctrls.wrQLenPdf::36                      0                       # What write queue length does an incoming req see
system.mem_ctrls.wrQLenPdf::37                      0                       # What write queue length does an incoming req see
system.mem_ctrls.wrQLenPdf::38                      0                       # What write queue length does an incoming req see
system.mem_ctrls.wrQLenPdf::39                      0                       # What write queue length does an incoming req see
system.mem_ctrls.wrQLenPdf::40                      0                       # What write queue length does an incoming req see
system.mem_ctrls.wrQLenPdf::41                      0                       # What write queue length does an incoming req see
system.mem_ctrls.wrQLenPdf::42                      0                       # What write queue length does an incoming req see
system.mem_ctrls.wrQLenPdf::43                      0                       # What write queue length does an incoming req see
system.mem_ctrls.wrQLenPdf::44                      0                       # What write queue length does an incoming req see
system.mem_ctrls.wrQLenPdf::45                      0                       # What write queue length does an incoming req see
system.mem_ctrls.wrQLenPdf::46                      0                       # What write queue length does an incoming req see
system.mem_ctrls.wrQLenPdf::47                      0                       # What write queue length does an incoming req see
system.mem_ctrls.wrQLenPdf::48                      0                       # What write queue length does an incoming req see
system.mem_ctrls.wrQLenPdf::49                      0                       # What write queue length does an incoming req see
system.mem_ctrls.wrQLenPdf::50                      0                       # What write queue length does an incoming req see
system.mem_ctrls.wrQLenPdf::51                      0                       # What write queue length does an incoming req see
system.mem_ctrls.wrQLenPdf::52                      0                       # What write queue length does an incoming req see
system.mem_ctrls.wrQLenPdf::53                      0                       # What write queue length does an incoming req see
system.mem_ctrls.wrQLenPdf::54                      0                       # What write queue length does an incoming req see
system.mem_ctrls.wrQLenPdf::55                      0                       # What write queue length does an incoming req see
system.mem_ctrls.wrQLenPdf::56                      0                       # What write queue length does an incoming req see
system.mem_ctrls.wrQLenPdf::57                      0                       # What write queue length does an incoming req see
system.mem_ctrls.wrQLenPdf::58                      0                       # What write queue length does an incoming req see
system.mem_ctrls.wrQLenPdf::59                      0                       # What write queue length does an incoming req see
system.mem_ctrls.wrQLenPdf::60                      0                       # What write queue length does an incoming req see
system.mem_ctrls.wrQLenPdf::61                      0                       # What write queue length does an incoming req see
system.mem_ctrls.wrQLenPdf::62                      0                       # What write queue length does an incoming req see
system.mem_ctrls.wrQLenPdf::63                      0                       # What write queue length does an incoming req see
system.mem_ctrls.bytesPerActivate::samples      1201944                       # Bytes accessed per row activation
system.mem_ctrls.bytesPerActivate::mean    228.518174                       # Bytes accessed per row activation
system.mem_ctrls.bytesPerActivate::gmean   169.796362                       # Bytes accessed per row activation
system.mem_ctrls.bytesPerActivate::stdev   236.060827                       # Bytes accessed per row activation
system.mem_ctrls.bytesPerActivate::0-127        74675      6.21%      6.21% # Bytes accessed per row activation
system.mem_ctrls.bytesPerActivate::128-255       837317     69.66%     75.88% # Bytes accessed per row activation
system.mem_ctrls.bytesPerActivate::256-383       100336      8.35%     84.22% # Bytes accessed per row activation
system.mem_ctrls.bytesPerActivate::384-511        39252      3.27%     87.49% # Bytes accessed per row activation
system.mem_ctrls.bytesPerActivate::512-639        35420      2.95%     90.44% # Bytes accessed per row activation
system.mem_ctrls.bytesPerActivate::640-767        24130      2.01%     92.44% # Bytes accessed per row activation
system.mem_ctrls.bytesPerActivate::768-895        18823      1.57%     94.01% # Bytes accessed per row activation
system.mem_ctrls.bytesPerActivate::896-1023        16825      1.40%     95.41% # Bytes accessed per row activation
system.mem_ctrls.bytesPerActivate::1024-1151        55166      4.59%    100.00% # Bytes accessed per row activation
system.mem_ctrls.bytesPerActivate::total      1201944                       # Bytes accessed per row activation
system.mem_ctrls.rdPerTurnAround::samples        99222                       # Reads before turning the bus around for writes
system.mem_ctrls.rdPerTurnAround::mean      27.215607                       # Reads before turning the bus around for writes
system.mem_ctrls.rdPerTurnAround::gmean     24.430734                       # Reads before turning the bus around for writes
system.mem_ctrls.rdPerTurnAround::stdev     18.831790                       # Reads before turning the bus around for writes
system.mem_ctrls.rdPerTurnAround::0-15            195      0.20%      0.20% # Reads before turning the bus around for writes
system.mem_ctrls.rdPerTurnAround::16-31         70637     71.19%     71.39% # Reads before turning the bus around for writes
system.mem_ctrls.rdPerTurnAround::32-47         22955     23.13%     94.52% # Reads before turning the bus around for writes
system.mem_ctrls.rdPerTurnAround::48-63          2972      3.00%     97.52% # Reads before turning the bus around for writes
system.mem_ctrls.rdPerTurnAround::64-79          1045      1.05%     98.57% # Reads before turning the bus around for writes
system.mem_ctrls.rdPerTurnAround::80-95           323      0.33%     98.90% # Reads before turning the bus around for writes
system.mem_ctrls.rdPerTurnAround::96-111          177      0.18%     99.07% # Reads before turning the bus around for writes
system.mem_ctrls.rdPerTurnAround::112-127          116      0.12%     99.19% # Reads before turning the bus around for writes
system.mem_ctrls.rdPerTurnAround::128-143          130      0.13%     99.32% # Reads before turning the bus around for writes
system.mem_ctrls.rdPerTurnAround::144-159          180      0.18%     99.50% # Reads before turning the bus around for writes
system.mem_ctrls.rdPerTurnAround::160-175           85      0.09%     99.59% # Reads before turning the bus around for writes
system.mem_ctrls.rdPerTurnAround::176-191           62      0.06%     99.65% # Reads before turning the bus around for writes
system.mem_ctrls.rdPerTurnAround::192-207          108      0.11%     99.76% # Reads before turning the bus around for writes
system.mem_ctrls.rdPerTurnAround::208-223          113      0.11%     99.88% # Reads before turning the bus around for writes
system.mem_ctrls.rdPerTurnAround::224-239           33      0.03%     99.91% # Reads before turning the bus around for writes
system.mem_ctrls.rdPerTurnAround::240-255           33      0.03%     99.94% # Reads before turning the bus around for writes
system.mem_ctrls.rdPerTurnAround::256-271           29      0.03%     99.97% # Reads before turning the bus around for writes
system.mem_ctrls.rdPerTurnAround::272-287           14      0.01%     99.98% # Reads before turning the bus around for writes
system.mem_ctrls.rdPerTurnAround::288-303            2      0.00%     99.99% # Reads before turning the bus around for writes
system.mem_ctrls.rdPerTurnAround::304-319            2      0.00%     99.99% # Reads before turning the bus around for writes
system.mem_ctrls.rdPerTurnAround::320-335            3      0.00%     99.99% # Reads before turning the bus around for writes
system.mem_ctrls.rdPerTurnAround::352-367            1      0.00%     99.99% # Reads before turning the bus around for writes
system.mem_ctrls.rdPerTurnAround::368-383            4      0.00%    100.00% # Reads before turning the bus around for writes
system.mem_ctrls.rdPerTurnAround::416-431            1      0.00%    100.00% # Reads before turning the bus around for writes
system.mem_ctrls.rdPerTurnAround::448-463            1      0.00%    100.00% # Reads before turning the bus around for writes
system.mem_ctrls.rdPerTurnAround::464-479            1      0.00%    100.00% # Reads before turning the bus around for writes
system.mem_ctrls.rdPerTurnAround::total         99222                       # Reads before turning the bus around for writes
system.mem_ctrls.wrPerTurnAround::samples        99222                       # Writes before turning the bus around for reads
system.mem_ctrls.wrPerTurnAround::mean      16.037713                       # Writes before turning the bus around for reads
system.mem_ctrls.wrPerTurnAround::gmean     16.035487                       # Writes before turning the bus around for reads
system.mem_ctrls.wrPerTurnAround::stdev      0.278483                       # Writes before turning the bus around for reads
system.mem_ctrls.wrPerTurnAround::16            97366     98.13%     98.13% # Writes before turning the bus around for reads
system.mem_ctrls.wrPerTurnAround::17              128      0.13%     98.26% # Writes before turning the bus around for reads
system.mem_ctrls.wrPerTurnAround::18             1573      1.59%     99.84% # Writes before turning the bus around for reads
system.mem_ctrls.wrPerTurnAround::19              152      0.15%    100.00% # Writes before turning the bus around for reads
system.mem_ctrls.wrPerTurnAround::20                3      0.00%    100.00% # Writes before turning the bus around for reads
system.mem_ctrls.wrPerTurnAround::total         99222                       # Writes before turning the bus around for reads
system.mem_ctrls.totQLat                  93126723324                       # Total ticks spent queuing
system.mem_ctrls.totMemAccLat            143758454574                       # Total ticks spent from burst creation until serviced by the DRAM
system.mem_ctrls.totBusLat                13501795000                       # Total ticks spent in databus transfers
system.mem_ctrls.avgQLat                     34486.79                       # Average queueing delay per DRAM burst
system.mem_ctrls.avgBusLat                    5000.00                       # Average bus latency per DRAM burst
system.mem_ctrls.avgMemAccLat                53236.79                       # Average memory access latency per DRAM burst
system.mem_ctrls.avgRdBW                       154.62                       # Average DRAM read bandwidth in MiByte/s
system.mem_ctrls.avgWrBW                        91.12                       # Average achieved write bandwidth in MiByte/s
system.mem_ctrls.avgRdBWSys                    154.66                       # Average system read bandwidth in MiByte/s
system.mem_ctrls.avgWrBWSys                     91.12                       # Average system write bandwidth in MiByte/s
system.mem_ctrls.peakBW                      12800.00                       # Theoretical peak bandwidth in MiByte/s
system.mem_ctrls.busUtil                         1.92                       # Data bus utilization in percentage
system.mem_ctrls.busUtilRead                     1.21                       # Data bus utilization in percentage for reads
system.mem_ctrls.busUtilWrite                    0.71                       # Data bus utilization in percentage for writes
system.mem_ctrls.avgRdQLen                       2.00                       # Average read queue length when enqueuing
system.mem_ctrls.avgWrQLen                      26.10                       # Average write queue length when enqueuing
system.mem_ctrls.readRowHits                  2014069                       # Number of row buffer hits during reads
system.mem_ctrls.writeRowHits                 1075640                       # Number of row buffer hits during writes
system.mem_ctrls.readRowHitRate                 74.59                       # Row buffer hit rate for reads
system.mem_ctrls.writeRowHitRate                67.60                       # Row buffer hit rate for writes
system.mem_ctrls.avgGap                     520796.04                       # Average gap between requests
system.mem_ctrls.pageHitRate                    71.99                       # Row buffer hit rate, read and write combined
system.mem_ctrls_0.actEnergy               4608636480                       # Energy for activate commands per rank (pJ)
system.mem_ctrls_0.preEnergy               2514633000                       # Energy for precharge commands per rank (pJ)
system.mem_ctrls_0.readEnergy             10681990800                       # Energy for read commands per rank (pJ)
system.mem_ctrls_0.writeEnergy             5181336720                       # Energy for write commands per rank (pJ)
system.mem_ctrls_0.refreshEnergy          73397922000                       # Energy for refresh commands per rank (pJ)
system.mem_ctrls_0.actBackEnergy         191518915860                       # Energy for active background per rank (pJ)
system.mem_ctrls_0.preBackEnergy         506251425750                       # Energy for precharge background per rank (pJ)
system.mem_ctrls_0.totalEnergy           794154860610                       # Total energy per rank (pJ)
system.mem_ctrls_0.averagePower            706.700157                       # Core power per rank (mW)
system.mem_ctrls_0.memoryStateTime::IDLE 835780262000                       # Time in different power states
system.mem_ctrls_0.memoryStateTime::REF   37323520000                       # Time in different power states
system.mem_ctrls_0.memoryStateTime::PRE_PDN            0                       # Time in different power states
system.mem_ctrls_0.memoryStateTime::ACT  244623204000                       # Time in different power states
system.mem_ctrls_0.memoryStateTime::ACT_PDN            0                       # Time in different power states
system.mem_ctrls_1.actEnergy               4513055400                       # Energy for activate commands per rank (pJ)
system.mem_ctrls_1.preEnergy               2462480625                       # Energy for precharge commands per rank (pJ)
system.mem_ctrls_1.readEnergy             10596081600                       # Energy for read commands per rank (pJ)
system.mem_ctrls_1.writeEnergy             5135970240                       # Energy for write commands per rank (pJ)
system.mem_ctrls_1.refreshEnergy          73397922000                       # Energy for refresh commands per rank (pJ)
system.mem_ctrls_1.actBackEnergy         189813779955                       # Energy for active background per rank (pJ)
system.mem_ctrls_1.preBackEnergy         507747159000                       # Energy for precharge background per rank (pJ)
system.mem_ctrls_1.totalEnergy           793666448820                       # Total energy per rank (pJ)
system.mem_ctrls_1.averagePower            706.265531                       # Core power per rank (mW)
system.mem_ctrls_1.memoryStateTime::IDLE 838435975749                       # Time in different power states
system.mem_ctrls_1.memoryStateTime::REF   37323520000                       # Time in different power states
system.mem_ctrls_1.memoryStateTime::PRE_PDN            0                       # Time in different power states
system.mem_ctrls_1.memoryStateTime::ACT  241972264251                       # Time in different power states
system.mem_ctrls_1.memoryStateTime::ACT_PDN            0                       # Time in different power states
system.cpu_voltage_domain.voltage                   1                       # Voltage in Volts
system.cpu_clk_domain.clock                       500                       # Clock period in ticks
system.cpu0.apic_clk_domain.clock                8000                       # Clock period in ticks
system.cpu0.numCycles                      2233555614                       # number of cpu cycles simulated
system.cpu0.numWorkItemsStarted                     0                       # number of work items this cpu started
system.cpu0.numWorkItemsCompleted                   0                       # number of work items this cpu completed
system.cpu0.kern.inst.arm                           0                       # number of arm instructions executed
system.cpu0.kern.inst.quiesce                       0                       # number of quiesce instructions executed
system.cpu0.committedInsts                    2953580                       # Number of instructions committed
system.cpu0.committedOps                      5890814                       # Number of ops (including micro ops) committed
system.cpu0.num_int_alu_accesses              5788860                       # Number of integer alu accesses
system.cpu0.num_fp_alu_accesses                  1826                       # Number of float alu accesses
system.cpu0.num_func_calls                     154414                       # number of times a function call or return occured
system.cpu0.num_conditional_control_insts       490354                       # number of instructions that are conditional controls
system.cpu0.num_int_insts                     5788860                       # number of integer instructions
system.cpu0.num_fp_insts                         1826                       # number of float instructions
system.cpu0.num_int_register_reads           11523796                       # number of times the integer registers were read
system.cpu0.num_int_register_writes           4702616                       # number of times the integer registers were written
system.cpu0.num_fp_register_reads                3068                       # number of times the floating registers were read
system.cpu0.num_fp_register_writes               1448                       # number of times the floating registers were written
system.cpu0.num_cc_register_reads             3690140                       # number of times the CC registers were read
system.cpu0.num_cc_register_writes            2023803                       # number of times the CC registers were written
system.cpu0.num_mem_refs                      1325709                       # number of memory refs
system.cpu0.num_load_insts                     856423                       # Number of load instructions
system.cpu0.num_store_insts                    469286                       # Number of store instructions
system.cpu0.num_idle_cycles              2220410693.616307                       # Number of idle cycles
system.cpu0.num_busy_cycles              13144920.383693                       # Number of busy cycles
system.cpu0.not_idle_fraction                0.005885                       # Percentage of non-idle cycles
system.cpu0.idle_fraction                    0.994115                       # Percentage of idle cycles
system.cpu0.Branches                           672486                       # Number of branches fetched
system.cpu0.op_class::No_OpClass                37110      0.63%      0.63% # Class of executed instruction
system.cpu0.op_class::IntAlu                  4511081     76.58%     77.21% # Class of executed instruction
system.cpu0.op_class::IntMult                    4620      0.08%     77.29% # Class of executed instruction
system.cpu0.op_class::IntDiv                    11009      0.19%     77.47% # Class of executed instruction
system.cpu0.op_class::FloatAdd                   1376      0.02%     77.50% # Class of executed instruction
system.cpu0.op_class::FloatCmp                      0      0.00%     77.50% # Class of executed instruction
system.cpu0.op_class::FloatCvt                      0      0.00%     77.50% # Class of executed instruction
system.cpu0.op_class::FloatMult                     0      0.00%     77.50% # Class of executed instruction
system.cpu0.op_class::FloatDiv                      0      0.00%     77.50% # Class of executed instruction
system.cpu0.op_class::FloatSqrt                     0      0.00%     77.50% # Class of executed instruction
system.cpu0.op_class::SimdAdd                       0      0.00%     77.50% # Class of executed instruction
system.cpu0.op_class::SimdAddAcc                    0      0.00%     77.50% # Class of executed instruction
system.cpu0.op_class::SimdAlu                       0      0.00%     77.50% # Class of executed instruction
system.cpu0.op_class::SimdCmp                       0      0.00%     77.50% # Class of executed instruction
system.cpu0.op_class::SimdCvt                       0      0.00%     77.50% # Class of executed instruction
system.cpu0.op_class::SimdMisc                      0      0.00%     77.50% # Class of executed instruction
system.cpu0.op_class::SimdMult                      0      0.00%     77.50% # Class of executed instruction
system.cpu0.op_class::SimdMultAcc                   0      0.00%     77.50% # Class of executed instruction
system.cpu0.op_class::SimdShift                     0      0.00%     77.50% # Class of executed instruction
system.cpu0.op_class::SimdShiftAcc                  0      0.00%     77.50% # Class of executed instruction
system.cpu0.op_class::SimdSqrt                      0      0.00%     77.50% # Class of executed instruction
system.cpu0.op_class::SimdFloatAdd                  0      0.00%     77.50% # Class of executed instruction
system.cpu0.op_class::SimdFloatAlu                  0      0.00%     77.50% # Class of executed instruction
system.cpu0.op_class::SimdFloatCmp                  0      0.00%     77.50% # Class of executed instruction
system.cpu0.op_class::SimdFloatCvt                  0      0.00%     77.50% # Class of executed instruction
system.cpu0.op_class::SimdFloatDiv                  0      0.00%     77.50% # Class of executed instruction
system.cpu0.op_class::SimdFloatMisc                 0      0.00%     77.50% # Class of executed instruction
system.cpu0.op_class::SimdFloatMult                 0      0.00%     77.50% # Class of executed instruction
system.cpu0.op_class::SimdFloatMultAcc              0      0.00%     77.50% # Class of executed instruction
system.cpu0.op_class::SimdFloatSqrt                 0      0.00%     77.50% # Class of executed instruction
system.cpu0.op_class::MemRead                  856423     14.54%     92.03% # Class of executed instruction
system.cpu0.op_class::MemWrite                 469286      7.97%    100.00% # Class of executed instruction
system.cpu0.op_class::IprAccess                     0      0.00%    100.00% # Class of executed instruction
system.cpu0.op_class::InstPrefetch                  0      0.00%    100.00% # Class of executed instruction
system.cpu0.op_class::total                   5890905                       # Class of executed instruction
system.cpu1.apic_clk_domain.clock                8000                       # Clock period in ticks
system.cpu1.numCycles                      2237435094                       # number of cpu cycles simulated
system.cpu1.numWorkItemsStarted                     0                       # number of work items this cpu started
system.cpu1.numWorkItemsCompleted                   0                       # number of work items this cpu completed
system.cpu1.kern.inst.arm                           0                       # number of arm instructions executed
system.cpu1.kern.inst.quiesce                       0                       # number of quiesce instructions executed
system.cpu1.committedInsts                     820436                       # Number of instructions committed
system.cpu1.committedOps                      1762925                       # Number of ops (including micro ops) committed
system.cpu1.num_int_alu_accesses              1725670                       # Number of integer alu accesses
system.cpu1.num_fp_alu_accesses                    39                       # Number of float alu accesses
system.cpu1.num_func_calls                      51462                       # number of times a function call or return occured
system.cpu1.num_conditional_control_insts       117470                       # number of instructions that are conditional controls
system.cpu1.num_int_insts                     1725670                       # number of integer instructions
system.cpu1.num_fp_insts                           39                       # number of float instructions
system.cpu1.num_int_register_reads            3516449                       # number of times the integer registers were read
system.cpu1.num_int_register_writes           1423937                       # number of times the integer registers were written
system.cpu1.num_fp_register_reads                  63                       # number of times the floating registers were read
system.cpu1.num_fp_register_writes                 31                       # number of times the floating registers were written
system.cpu1.num_cc_register_reads              931246                       # number of times the CC registers were read
system.cpu1.num_cc_register_writes             510931                       # number of times the CC registers were written
system.cpu1.num_mem_refs                       426805                       # number of memory refs
system.cpu1.num_load_insts                     265450                       # Number of load instructions
system.cpu1.num_store_insts                    161355                       # Number of store instructions
system.cpu1.num_idle_cycles              2232255220.492239                       # Number of idle cycles
system.cpu1.num_busy_cycles              5179873.507760                       # Number of busy cycles
system.cpu1.not_idle_fraction                0.002315                       # Percentage of non-idle cycles
system.cpu1.idle_fraction                    0.997685                       # Percentage of idle cycles
system.cpu1.Branches                           185384                       # Number of branches fetched
system.cpu1.op_class::No_OpClass                28070      1.59%      1.59% # Class of executed instruction
system.cpu1.op_class::IntAlu                  1295249     73.47%     75.06% # Class of executed instruction
system.cpu1.op_class::IntMult                    3358      0.19%     75.25% # Class of executed instruction
system.cpu1.op_class::IntDiv                     9435      0.54%     75.79% # Class of executed instruction
system.cpu1.op_class::FloatAdd                     30      0.00%     75.79% # Class of executed instruction
system.cpu1.op_class::FloatCmp                      0      0.00%     75.79% # Class of executed instruction
system.cpu1.op_class::FloatCvt                      0      0.00%     75.79% # Class of executed instruction
system.cpu1.op_class::FloatMult                     0      0.00%     75.79% # Class of executed instruction
system.cpu1.op_class::FloatDiv                      0      0.00%     75.79% # Class of executed instruction
system.cpu1.op_class::FloatSqrt                     0      0.00%     75.79% # Class of executed instruction
system.cpu1.op_class::SimdAdd                       0      0.00%     75.79% # Class of executed instruction
system.cpu1.op_class::SimdAddAcc                    0      0.00%     75.79% # Class of executed instruction
system.cpu1.op_class::SimdAlu                       0      0.00%     75.79% # Class of executed instruction
system.cpu1.op_class::SimdCmp                       0      0.00%     75.79% # Class of executed instruction
system.cpu1.op_class::SimdCvt                       0      0.00%     75.79% # Class of executed instruction
system.cpu1.op_class::SimdMisc                      0      0.00%     75.79% # Class of executed instruction
system.cpu1.op_class::SimdMult                      0      0.00%     75.79% # Class of executed instruction
system.cpu1.op_class::SimdMultAcc                   0      0.00%     75.79% # Class of executed instruction
system.cpu1.op_class::SimdShift                     0      0.00%     75.79% # Class of executed instruction
system.cpu1.op_class::SimdShiftAcc                  0      0.00%     75.79% # Class of executed instruction
system.cpu1.op_class::SimdSqrt                      0      0.00%     75.79% # Class of executed instruction
system.cpu1.op_class::SimdFloatAdd                  0      0.00%     75.79% # Class of executed instruction
system.cpu1.op_class::SimdFloatAlu                  0      0.00%     75.79% # Class of executed instruction
system.cpu1.op_class::SimdFloatCmp                  0      0.00%     75.79% # Class of executed instruction
system.cpu1.op_class::SimdFloatCvt                  0      0.00%     75.79% # Class of executed instruction
system.cpu1.op_class::SimdFloatDiv                  0      0.00%     75.79% # Class of executed instruction
system.cpu1.op_class::SimdFloatMisc                 0      0.00%     75.79% # Class of executed instruction
system.cpu1.op_class::SimdFloatMult                 0      0.00%     75.79% # Class of executed instruction
system.cpu1.op_class::SimdFloatMultAcc              0      0.00%     75.79% # Class of executed instruction
system.cpu1.op_class::SimdFloatSqrt                 0      0.00%     75.79% # Class of executed instruction
system.cpu1.op_class::MemRead                  265450     15.06%     90.85% # Class of executed instruction
system.cpu1.op_class::MemWrite                 161355      9.15%    100.00% # Class of executed instruction
system.cpu1.op_class::IprAccess                     0      0.00%    100.00% # Class of executed instruction
system.cpu1.op_class::InstPrefetch                  0      0.00%    100.00% # Class of executed instruction
system.cpu1.op_class::total                   1762947                       # Class of executed instruction
system.cpu2.apic_clk_domain.clock                8000                       # Clock period in ticks
system.cpu2.numCycles                      2237313723                       # number of cpu cycles simulated
system.cpu2.numWorkItemsStarted                     0                       # number of work items this cpu started
system.cpu2.numWorkItemsCompleted                   0                       # number of work items this cpu completed
system.cpu2.kern.inst.arm                           0                       # number of arm instructions executed
system.cpu2.kern.inst.quiesce                       0                       # number of quiesce instructions executed
system.cpu2.committedInsts                  533841908                       # Number of instructions committed
system.cpu2.committedOps                    709150091                       # Number of ops (including micro ops) committed
system.cpu2.num_int_alu_accesses            508773190                       # Number of integer alu accesses
system.cpu2.num_fp_alu_accesses             331101068                       # Number of float alu accesses
system.cpu2.num_func_calls                     431705                       # number of times a function call or return occured
system.cpu2.num_conditional_control_insts     31465893                       # number of instructions that are conditional controls
system.cpu2.num_int_insts                   508773190                       # number of integer instructions
system.cpu2.num_fp_insts                    331101068                       # number of float instructions
system.cpu2.num_int_register_reads         1070051714                       # number of times the integer registers were read
system.cpu2.num_int_register_writes         339818647                       # number of times the integer registers were written
system.cpu2.num_fp_register_reads           564014582                       # number of times the floating registers were read
system.cpu2.num_fp_register_writes          276695748                       # number of times the floating registers were written
system.cpu2.num_cc_register_reads           220276642                       # number of times the CC registers were read
system.cpu2.num_cc_register_writes          241352479                       # number of times the CC registers were written
system.cpu2.num_mem_refs                    152829919                       # number of memory refs
system.cpu2.num_load_insts                   94756395                       # Number of load instructions
system.cpu2.num_store_insts                  58073524                       # Number of store instructions
system.cpu2.num_idle_cycles              9058233.379108                       # Number of idle cycles
system.cpu2.num_busy_cycles              2228255489.620892                       # Number of busy cycles
system.cpu2.not_idle_fraction                0.995951                       # Percentage of non-idle cycles
system.cpu2.idle_fraction                    0.004049                       # Percentage of idle cycles
system.cpu2.Branches                         33876644                       # Number of branches fetched
system.cpu2.op_class::No_OpClass               955003      0.13%      0.13% # Class of executed instruction
system.cpu2.op_class::IntAlu                444053914     62.62%     62.75% # Class of executed instruction
system.cpu2.op_class::IntMult                   24354      0.00%     62.76% # Class of executed instruction
system.cpu2.op_class::IntDiv                   145472      0.02%     62.78% # Class of executed instruction
system.cpu2.op_class::FloatAdd              111149730     15.67%     78.45% # Class of executed instruction
system.cpu2.op_class::FloatCmp                      0      0.00%     78.45% # Class of executed instruction
system.cpu2.op_class::FloatCvt                      0      0.00%     78.45% # Class of executed instruction
system.cpu2.op_class::FloatMult                     0      0.00%     78.45% # Class of executed instruction
system.cpu2.op_class::FloatDiv                      0      0.00%     78.45% # Class of executed instruction
system.cpu2.op_class::FloatSqrt                     0      0.00%     78.45% # Class of executed instruction
system.cpu2.op_class::SimdAdd                       0      0.00%     78.45% # Class of executed instruction
system.cpu2.op_class::SimdAddAcc                    0      0.00%     78.45% # Class of executed instruction
system.cpu2.op_class::SimdAlu                       0      0.00%     78.45% # Class of executed instruction
system.cpu2.op_class::SimdCmp                       0      0.00%     78.45% # Class of executed instruction
system.cpu2.op_class::SimdCvt                       0      0.00%     78.45% # Class of executed instruction
system.cpu2.op_class::SimdMisc                      0      0.00%     78.45% # Class of executed instruction
system.cpu2.op_class::SimdMult                      0      0.00%     78.45% # Class of executed instruction
system.cpu2.op_class::SimdMultAcc                   0      0.00%     78.45% # Class of executed instruction
system.cpu2.op_class::SimdShift                     0      0.00%     78.45% # Class of executed instruction
system.cpu2.op_class::SimdShiftAcc                  0      0.00%     78.45% # Class of executed instruction
system.cpu2.op_class::SimdSqrt                      0      0.00%     78.45% # Class of executed instruction
system.cpu2.op_class::SimdFloatAdd                  0      0.00%     78.45% # Class of executed instruction
system.cpu2.op_class::SimdFloatAlu                  0      0.00%     78.45% # Class of executed instruction
system.cpu2.op_class::SimdFloatCmp                  0      0.00%     78.45% # Class of executed instruction
system.cpu2.op_class::SimdFloatCvt                  0      0.00%     78.45% # Class of executed instruction
system.cpu2.op_class::SimdFloatDiv                  0      0.00%     78.45% # Class of executed instruction
system.cpu2.op_class::SimdFloatMisc                 0      0.00%     78.45% # Class of executed instruction
system.cpu2.op_class::SimdFloatMult                 0      0.00%     78.45% # Class of executed instruction
system.cpu2.op_class::SimdFloatMultAcc              0      0.00%     78.45% # Class of executed instruction
system.cpu2.op_class::SimdFloatSqrt                 0      0.00%     78.45% # Class of executed instruction
system.cpu2.op_class::MemRead                94756395     13.36%     91.81% # Class of executed instruction
system.cpu2.op_class::MemWrite               58073524      8.19%    100.00% # Class of executed instruction
system.cpu2.op_class::IprAccess                     0      0.00%    100.00% # Class of executed instruction
system.cpu2.op_class::InstPrefetch                  0      0.00%    100.00% # Class of executed instruction
system.cpu2.op_class::total                 709158392                       # Class of executed instruction
system.cpu3.apic_clk_domain.clock                8000                       # Clock period in ticks
system.cpu3.numCycles                      2231998642                       # number of cpu cycles simulated
system.cpu3.numWorkItemsStarted                     0                       # number of work items this cpu started
system.cpu3.numWorkItemsCompleted                   0                       # number of work items this cpu completed
system.cpu3.kern.inst.arm                           0                       # number of arm instructions executed
system.cpu3.kern.inst.quiesce                       0                       # number of quiesce instructions executed
system.cpu3.committedInsts                     856681                       # Number of instructions committed
system.cpu3.committedOps                      1839501                       # Number of ops (including micro ops) committed
system.cpu3.num_int_alu_accesses              1796128                       # Number of integer alu accesses
system.cpu3.num_fp_alu_accesses                     0                       # Number of float alu accesses
system.cpu3.num_func_calls                      49974                       # number of times a function call or return occured
system.cpu3.num_conditional_control_insts       132323                       # number of instructions that are conditional controls
system.cpu3.num_int_insts                     1796128                       # number of integer instructions
system.cpu3.num_fp_insts                            0                       # number of float instructions
system.cpu3.num_int_register_reads            3648927                       # number of times the integer registers were read
system.cpu3.num_int_register_writes           1489952                       # number of times the integer registers were written
system.cpu3.num_fp_register_reads                   0                       # number of times the floating registers were read
system.cpu3.num_fp_register_writes                  0                       # number of times the floating registers were written
system.cpu3.num_cc_register_reads             1037345                       # number of times the CC registers were read
system.cpu3.num_cc_register_writes             542141                       # number of times the CC registers were written
system.cpu3.num_mem_refs                       435634                       # number of memory refs
system.cpu3.num_load_insts                     272635                       # Number of load instructions
system.cpu3.num_store_insts                    162999                       # Number of store instructions
system.cpu3.num_idle_cycles              2227076348.168570                       # Number of idle cycles
system.cpu3.num_busy_cycles              4922293.831430                       # Number of busy cycles
system.cpu3.not_idle_fraction                0.002205                       # Percentage of non-idle cycles
system.cpu3.idle_fraction                    0.997795                       # Percentage of idle cycles
system.cpu3.Branches                           198603                       # Number of branches fetched
system.cpu3.op_class::No_OpClass                33418      1.82%      1.82% # Class of executed instruction
system.cpu3.op_class::IntAlu                  1354163     73.62%     75.43% # Class of executed instruction
system.cpu3.op_class::IntMult                    4256      0.23%     75.66% # Class of executed instruction
system.cpu3.op_class::IntDiv                    12033      0.65%     76.32% # Class of executed instruction
system.cpu3.op_class::FloatAdd                      0      0.00%     76.32% # Class of executed instruction
system.cpu3.op_class::FloatCmp                      0      0.00%     76.32% # Class of executed instruction
system.cpu3.op_class::FloatCvt                      0      0.00%     76.32% # Class of executed instruction
system.cpu3.op_class::FloatMult                     0      0.00%     76.32% # Class of executed instruction
system.cpu3.op_class::FloatDiv                      0      0.00%     76.32% # Class of executed instruction
system.cpu3.op_class::FloatSqrt                     0      0.00%     76.32% # Class of executed instruction
system.cpu3.op_class::SimdAdd                       0      0.00%     76.32% # Class of executed instruction
system.cpu3.op_class::SimdAddAcc                    0      0.00%     76.32% # Class of executed instruction
system.cpu3.op_class::SimdAlu                       0      0.00%     76.32% # Class of executed instruction
system.cpu3.op_class::SimdCmp                       0      0.00%     76.32% # Class of executed instruction
system.cpu3.op_class::SimdCvt                       0      0.00%     76.32% # Class of executed instruction
system.cpu3.op_class::SimdMisc                      0      0.00%     76.32% # Class of executed instruction
system.cpu3.op_class::SimdMult                      0      0.00%     76.32% # Class of executed instruction
system.cpu3.op_class::SimdMultAcc                   0      0.00%     76.32% # Class of executed instruction
system.cpu3.op_class::SimdShift                     0      0.00%     76.32% # Class of executed instruction
system.cpu3.op_class::SimdShiftAcc                  0      0.00%     76.32% # Class of executed instruction
system.cpu3.op_class::SimdSqrt                      0      0.00%     76.32% # Class of executed instruction
system.cpu3.op_class::SimdFloatAdd                  0      0.00%     76.32% # Class of executed instruction
system.cpu3.op_class::SimdFloatAlu                  0      0.00%     76.32% # Class of executed instruction
system.cpu3.op_class::SimdFloatCmp                  0      0.00%     76.32% # Class of executed instruction
system.cpu3.op_class::SimdFloatCvt                  0      0.00%     76.32% # Class of executed instruction
system.cpu3.op_class::SimdFloatDiv                  0      0.00%     76.32% # Class of executed instruction
system.cpu3.op_class::SimdFloatMisc                 0      0.00%     76.32% # Class of executed instruction
system.cpu3.op_class::SimdFloatMult                 0      0.00%     76.32% # Class of executed instruction
system.cpu3.op_class::SimdFloatMultAcc              0      0.00%     76.32% # Class of executed instruction
system.cpu3.op_class::SimdFloatSqrt                 0      0.00%     76.32% # Class of executed instruction
system.cpu3.op_class::MemRead                  272635     14.82%     91.14% # Class of executed instruction
system.cpu3.op_class::MemWrite                 162999      8.86%    100.00% # Class of executed instruction
system.cpu3.op_class::IprAccess                     0      0.00%    100.00% # Class of executed instruction
system.cpu3.op_class::InstPrefetch                  0      0.00%    100.00% # Class of executed instruction
system.cpu3.op_class::total                   1839504                       # Class of executed instruction
system.iobus.trans_dist::ReadReq                  706                       # Transaction distribution
system.iobus.trans_dist::ReadResp                 706                       # Transaction distribution
system.iobus.trans_dist::WriteReq                1379                       # Transaction distribution
system.iobus.trans_dist::WriteResp               1379                       # Transaction distribution
system.iobus.trans_dist::MessageReq                10                       # Transaction distribution
system.iobus.trans_dist::MessageResp               10                       # Transaction distribution
system.iobus.pkt_count_system.pc.south_bridge.io_apic.int_master::system.ruby.l1_cntrl1.sequencer.pio-slave-port            2                       # Packet count per connected master and slave (bytes)
system.iobus.pkt_count_system.pc.south_bridge.io_apic.int_master::system.ruby.l1_cntrl2.sequencer.pio-slave-port            2                       # Packet count per connected master and slave (bytes)
system.iobus.pkt_count_system.pc.south_bridge.io_apic.int_master::total            4                       # Packet count per connected master and slave (bytes)
system.iobus.pkt_count_system.ruby.l1_cntrl0.sequencer.mem-master-port::system.ruby.l1_cntrl0.sequencer.pio-slave-port          578                       # Packet count per connected master and slave (bytes)
system.iobus.pkt_count_system.ruby.l1_cntrl0.sequencer.mem-master-port::system.ruby.l1_cntrl1.sequencer.pio-slave-port            2                       # Packet count per connected master and slave (bytes)
system.iobus.pkt_count_system.ruby.l1_cntrl0.sequencer.mem-master-port::system.ruby.l1_cntrl2.sequencer.pio-slave-port            2                       # Packet count per connected master and slave (bytes)
system.iobus.pkt_count_system.ruby.l1_cntrl0.sequencer.mem-master-port::system.ruby.l1_cntrl3.sequencer.pio-slave-port            2                       # Packet count per connected master and slave (bytes)
system.iobus.pkt_count_system.ruby.l1_cntrl0.sequencer.mem-master-port::total          584                       # Packet count per connected master and slave (bytes)
system.iobus.pkt_count_system.ruby.l1_cntrl1.sequencer.mem-master-port::system.pc.south_bridge.io_apic.pio            6                       # Packet count per connected master and slave (bytes)
system.iobus.pkt_count_system.ruby.l1_cntrl1.sequencer.mem-master-port::system.pc.com_1.pio         1854                       # Packet count per connected master and slave (bytes)
system.iobus.pkt_count_system.ruby.l1_cntrl1.sequencer.mem-master-port::system.ruby.l1_cntrl1.sequencer.pio-slave-port          570                       # Packet count per connected master and slave (bytes)
system.iobus.pkt_count_system.ruby.l1_cntrl1.sequencer.mem-master-port::system.ruby.l1_cntrl2.sequencer.pio-slave-port            2                       # Packet count per connected master and slave (bytes)
system.iobus.pkt_count_system.ruby.l1_cntrl1.sequencer.mem-master-port::total         2432                       # Packet count per connected master and slave (bytes)
system.iobus.pkt_count_system.ruby.l1_cntrl2.sequencer.mem-master-port::system.pc.south_bridge.io_apic.pio            8                       # Packet count per connected master and slave (bytes)
system.iobus.pkt_count_system.ruby.l1_cntrl2.sequencer.mem-master-port::system.ruby.l1_cntrl1.sequencer.pio-slave-port            2                       # Packet count per connected master and slave (bytes)
system.iobus.pkt_count_system.ruby.l1_cntrl2.sequencer.mem-master-port::system.ruby.l1_cntrl2.sequencer.pio-slave-port          582                       # Packet count per connected master and slave (bytes)
system.iobus.pkt_count_system.ruby.l1_cntrl2.sequencer.mem-master-port::system.ruby.l1_cntrl3.sequencer.pio-slave-port            4                       # Packet count per connected master and slave (bytes)
system.iobus.pkt_count_system.ruby.l1_cntrl2.sequencer.mem-master-port::total          596                       # Packet count per connected master and slave (bytes)
system.iobus.pkt_count_system.ruby.l1_cntrl3.sequencer.mem-master-port::system.pc.com_1.pio            2                       # Packet count per connected master and slave (bytes)
system.iobus.pkt_count_system.ruby.l1_cntrl3.sequencer.mem-master-port::system.ruby.l1_cntrl0.sequencer.pio-slave-port            2                       # Packet count per connected master and slave (bytes)
system.iobus.pkt_count_system.ruby.l1_cntrl3.sequencer.mem-master-port::system.ruby.l1_cntrl3.sequencer.pio-slave-port          570                       # Packet count per connected master and slave (bytes)
system.iobus.pkt_count_system.ruby.l1_cntrl3.sequencer.mem-master-port::total          574                       # Packet count per connected master and slave (bytes)
system.iobus.pkt_count::total                    4190                       # Packet count per connected master and slave (bytes)
system.iobus.pkt_size_system.pc.south_bridge.io_apic.int_master::system.ruby.l1_cntrl1.sequencer.pio-slave-port            4                       # Cumulative packet size per connected master and slave (bytes)
system.iobus.pkt_size_system.pc.south_bridge.io_apic.int_master::system.ruby.l1_cntrl2.sequencer.pio-slave-port            4                       # Cumulative packet size per connected master and slave (bytes)
system.iobus.pkt_size_system.pc.south_bridge.io_apic.int_master::total            8                       # Cumulative packet size per connected master and slave (bytes)
system.iobus.pkt_size_system.ruby.l1_cntrl0.sequencer.mem-master-port::system.ruby.l1_cntrl0.sequencer.pio-slave-port         1156                       # Cumulative packet size per connected master and slave (bytes)
system.iobus.pkt_size_system.ruby.l1_cntrl0.sequencer.mem-master-port::system.ruby.l1_cntrl1.sequencer.pio-slave-port            4                       # Cumulative packet size per connected master and slave (bytes)
system.iobus.pkt_size_system.ruby.l1_cntrl0.sequencer.mem-master-port::system.ruby.l1_cntrl2.sequencer.pio-slave-port            4                       # Cumulative packet size per connected master and slave (bytes)
system.iobus.pkt_size_system.ruby.l1_cntrl0.sequencer.mem-master-port::system.ruby.l1_cntrl3.sequencer.pio-slave-port            4                       # Cumulative packet size per connected master and slave (bytes)
system.iobus.pkt_size_system.ruby.l1_cntrl0.sequencer.mem-master-port::total         1168                       # Cumulative packet size per connected master and slave (bytes)
system.iobus.pkt_size_system.ruby.l1_cntrl1.sequencer.mem-master-port::system.pc.south_bridge.io_apic.pio           12                       # Cumulative packet size per connected master and slave (bytes)
system.iobus.pkt_size_system.ruby.l1_cntrl1.sequencer.mem-master-port::system.pc.com_1.pio          927                       # Cumulative packet size per connected master and slave (bytes)
system.iobus.pkt_size_system.ruby.l1_cntrl1.sequencer.mem-master-port::system.ruby.l1_cntrl1.sequencer.pio-slave-port         1140                       # Cumulative packet size per connected master and slave (bytes)
system.iobus.pkt_size_system.ruby.l1_cntrl1.sequencer.mem-master-port::system.ruby.l1_cntrl2.sequencer.pio-slave-port            4                       # Cumulative packet size per connected master and slave (bytes)
system.iobus.pkt_size_system.ruby.l1_cntrl1.sequencer.mem-master-port::total         2083                       # Cumulative packet size per connected master and slave (bytes)
system.iobus.pkt_size_system.ruby.l1_cntrl2.sequencer.mem-master-port::system.pc.south_bridge.io_apic.pio           16                       # Cumulative packet size per connected master and slave (bytes)
system.iobus.pkt_size_system.ruby.l1_cntrl2.sequencer.mem-master-port::system.ruby.l1_cntrl1.sequencer.pio-slave-port            4                       # Cumulative packet size per connected master and slave (bytes)
system.iobus.pkt_size_system.ruby.l1_cntrl2.sequencer.mem-master-port::system.ruby.l1_cntrl2.sequencer.pio-slave-port         1164                       # Cumulative packet size per connected master and slave (bytes)
system.iobus.pkt_size_system.ruby.l1_cntrl2.sequencer.mem-master-port::system.ruby.l1_cntrl3.sequencer.pio-slave-port            8                       # Cumulative packet size per connected master and slave (bytes)
system.iobus.pkt_size_system.ruby.l1_cntrl2.sequencer.mem-master-port::total         1192                       # Cumulative packet size per connected master and slave (bytes)
system.iobus.pkt_size_system.ruby.l1_cntrl3.sequencer.mem-master-port::system.pc.com_1.pio            1                       # Cumulative packet size per connected master and slave (bytes)
system.iobus.pkt_size_system.ruby.l1_cntrl3.sequencer.mem-master-port::system.ruby.l1_cntrl0.sequencer.pio-slave-port            4                       # Cumulative packet size per connected master and slave (bytes)
system.iobus.pkt_size_system.ruby.l1_cntrl3.sequencer.mem-master-port::system.ruby.l1_cntrl3.sequencer.pio-slave-port         1140                       # Cumulative packet size per connected master and slave (bytes)
system.iobus.pkt_size_system.ruby.l1_cntrl3.sequencer.mem-master-port::total         1145                       # Cumulative packet size per connected master and slave (bytes)
system.iobus.pkt_size::total                     5596                       # Cumulative packet size per connected master and slave (bytes)
system.iobus.reqLayer8.occupancy                11998                       # Layer occupancy (ticks)
system.iobus.reqLayer8.utilization                0.0                       # Layer utilization (%)
system.iobus.reqLayer12.occupancy             1206000                       # Layer occupancy (ticks)
system.iobus.reqLayer12.utilization               0.0                       # Layer utilization (%)
system.iobus.reqLayer17.occupancy              659498                       # Layer occupancy (ticks)
system.iobus.reqLayer17.utilization               0.0                       # Layer utilization (%)
system.iobus.reqLayer18.occupancy              652000                       # Layer occupancy (ticks)
system.iobus.reqLayer18.utilization               0.0                       # Layer utilization (%)
system.iobus.reqLayer19.occupancy              778264                       # Layer occupancy (ticks)
system.iobus.reqLayer19.utilization               0.0                       # Layer utilization (%)
system.iobus.reqLayer20.occupancy              652500                       # Layer occupancy (ticks)
system.iobus.reqLayer20.utilization               0.0                       # Layer utilization (%)
system.iobus.respLayer0.occupancy                3000                       # Layer occupancy (ticks)
system.iobus.respLayer0.utilization               0.0                       # Layer utilization (%)
system.iobus.respLayer2.occupancy              439500                       # Layer occupancy (ticks)
system.iobus.respLayer2.utilization               0.0                       # Layer utilization (%)
system.iobus.respLayer4.occupancy             2055500                       # Layer occupancy (ticks)
system.iobus.respLayer4.utilization               0.0                       # Layer utilization (%)
system.iobus.respLayer6.occupancy              448500                       # Layer occupancy (ticks)
system.iobus.respLayer6.utilization               0.0                       # Layer utilization (%)
system.iobus.respLayer8.occupancy              430500                       # Layer occupancy (ticks)
system.iobus.respLayer8.utilization               0.0                       # Layer utilization (%)
system.pc.south_bridge.ide.disks.dma_read_full_pages            0                       # Number of full page size DMA reads (not PRD).
system.pc.south_bridge.ide.disks.dma_read_bytes            0                       # Number of bytes transfered via DMA reads (not PRD).
system.pc.south_bridge.ide.disks.dma_read_txs            0                       # Number of DMA read transactions (not PRD).
system.pc.south_bridge.ide.disks.dma_write_full_pages            0                       # Number of full page size DMA writes.
system.pc.south_bridge.ide.disks.dma_write_bytes            0                       # Number of bytes transfered via DMA writes.
system.pc.south_bridge.ide.disks.dma_write_txs            0                       # Number of DMA write transactions.
system.ruby.clk_domain.clock                      500                       # Clock period in ticks
system.ruby.delayHist::bucket_size                  8                       # delay histogram for all message
system.ruby.delayHist::max_bucket                  79                       # delay histogram for all message
system.ruby.delayHist::samples               35193286                       # delay histogram for all message
system.ruby.delayHist::mean                  2.214479                       # delay histogram for all message
system.ruby.delayHist::stdev                 5.526163                       # delay histogram for all message
system.ruby.delayHist                    |    30326376     86.17%     86.17% |        7877      0.02%     86.19% |     4856624     13.80%     99.99% |         835      0.00%    100.00% |        1556      0.00%    100.00% |           6      0.00%    100.00% |          12      0.00%    100.00% |           0      0.00%    100.00% |           0      0.00%    100.00% |           0      0.00%    100.00% # delay histogram for all message
system.ruby.delayHist::total                 35193286                       # delay histogram for all message
system.ruby.outstanding_req_hist_seqr::bucket_size            1                      
system.ruby.outstanding_req_hist_seqr::max_bucket            9                      
system.ruby.outstanding_req_hist_seqr::samples    936074843                      
system.ruby.outstanding_req_hist_seqr::mean     1.000000                      
system.ruby.outstanding_req_hist_seqr::gmean     1.000000                      
system.ruby.outstanding_req_hist_seqr::stdev     0.000212                      
system.ruby.outstanding_req_hist_seqr    |           0      0.00%      0.00% |   936074801    100.00%    100.00% |          42      0.00%    100.00% |           0      0.00%    100.00% |           0      0.00%    100.00% |           0      0.00%    100.00% |           0      0.00%    100.00% |           0      0.00%    100.00% |           0      0.00%    100.00% |           0      0.00%    100.00%
system.ruby.outstanding_req_hist_seqr::total    936074843                      
system.ruby.latency_hist_seqr::bucket_size          256                      
system.ruby.latency_hist_seqr::max_bucket         2559                      
system.ruby.latency_hist_seqr::samples      936074843                      
system.ruby.latency_hist_seqr::mean          1.402817                      
system.ruby.latency_hist_seqr::gmean         1.025116                      
system.ruby.latency_hist_seqr::stdev         9.512321                      
system.ruby.latency_hist_seqr            |   935947080     99.99%     99.99% |       59426      0.01%     99.99% |       47941      0.01%    100.00% |        9576      0.00%    100.00% |        7585      0.00%    100.00% |        2524      0.00%    100.00% |         380      0.00%    100.00% |         331      0.00%    100.00% |           0      0.00%    100.00% |           0      0.00%    100.00%
system.ruby.latency_hist_seqr::total        936074843                      
system.ruby.hit_latency_hist_seqr::bucket_size            1                      
system.ruby.hit_latency_hist_seqr::max_bucket            9                      
system.ruby.hit_latency_hist_seqr::samples    929524242                      
system.ruby.hit_latency_hist_seqr::mean             1                      
system.ruby.hit_latency_hist_seqr::gmean            1                      
system.ruby.hit_latency_hist_seqr        |           0      0.00%      0.00% |   929524242    100.00%    100.00% |           0      0.00%    100.00% |           0      0.00%    100.00% |           0      0.00%    100.00% |           0      0.00%    100.00% |           0      0.00%    100.00% |           0      0.00%    100.00% |           0      0.00%    100.00% |           0      0.00%    100.00%
system.ruby.hit_latency_hist_seqr::total    929524242                      
system.ruby.miss_latency_hist_seqr::bucket_size          256                      
system.ruby.miss_latency_hist_seqr::max_bucket         2559                      
system.ruby.miss_latency_hist_seqr::samples      6550601                      
system.ruby.miss_latency_hist_seqr::mean    58.562177                      
system.ruby.miss_latency_hist_seqr::gmean    34.630926                      
system.ruby.miss_latency_hist_seqr::stdev    98.183001                      
[...]
system.ruby.DMA_Controller.WriteRequest::total           64                      
system.ruby.DMA_Controller.Data          |           2    100.00%    100.00% |           0      0.00%    100.00%
system.ruby.DMA_Controller.Data::total              2                      
system.ruby.DMA_Controller.Ack           |          64    100.00%    100.00% |           0      0.00%    100.00%
system.ruby.DMA_Controller.Ack::total              64                      
system.ruby.DMA_Controller.READY.ReadRequest |           2    100.00%    100.00% |           0      0.00%    100.00%
system.ruby.DMA_Controller.READY.ReadRequest::total            2                      
system.ruby.DMA_Controller.READY.WriteRequest |          64    100.00%    100.00% |           0      0.00%    100.00%
system.ruby.DMA_Controller.READY.WriteRequest::total           64                      
system.ruby.DMA_Controller.BUSY_RD.Data  |           2    100.00%    100.00% |           0      0.00%    100.00%
system.ruby.DMA_Controller.BUSY_RD.Data::total            2                      
system.ruby.DMA_Controller.BUSY_WR.Ack   |          64    100.00%    100.00% |           0      0.00%    100.00%
system.ruby.DMA_Controller.BUSY_WR.Ack::total           64                      
system.ruby.L1Cache_Controller.Load      |     2796806      2.50%      2.50% |      822616      0.74%      3.23% |   107791053     96.33%     99.56% |      489065      0.44%    100.00%
system.ruby.L1Cache_Controller.Load::total    111899540                      
system.ruby.L1Cache_Controller.Ifetch    |    16934650      2.15%      2.15% |     4060289      0.52%      2.67% |   763450591     97.05%     99.71% |     2242064      0.29%    100.00%
system.ruby.L1Cache_Controller.Ifetch::total    786687594                      
system.ruby.L1Cache_Controller.Store     |     2182356      3.54%      3.54% |      650769      1.06%      4.59% |    58509066     94.86%     99.45% |      339169      0.55%    100.00%
system.ruby.L1Cache_Controller.Store::total     61681360                      
system.ruby.L1Cache_Controller.Inv       |       20177     28.96%     28.96% |       16322     23.43%     52.39% |       15442     22.17%     74.56% |       17725     25.44%    100.00%
system.ruby.L1Cache_Controller.Inv::total        69666                      
system.ruby.L1Cache_Controller.L1_Replacement |      121535      1.83%      1.83% |       44820      0.67%      2.50% |     6458428     97.13%     99.63% |       24510      0.37%    100.00%
system.ruby.L1Cache_Controller.L1_Replacement::total      6649293                      
system.ruby.L1Cache_Controller.Fwd_GETX  |         649     21.68%     21.68% |         841     28.09%     49.77% |         485     16.20%     65.97% |        1019     34.03%    100.00%
system.ruby.L1Cache_Controller.Fwd_GETX::total         2994                      
system.ruby.L1Cache_Controller.Fwd_GETS  |        2864     28.62%     28.62% |        3209     32.07%     60.69% |        1356     13.55%     74.24% |        2578     25.76%    100.00%
system.ruby.L1Cache_Controller.Fwd_GETS::total        10007                      
system.ruby.L1Cache_Controller.Data      |         586     40.44%     40.44% |         238     16.43%     56.87% |         405     27.95%     84.82% |         220     15.18%    100.00%
system.ruby.L1Cache_Controller.Data::total         1449                      
system.ruby.L1Cache_Controller.Data_Exclusive |       56822      1.80%      1.80% |       14157      0.45%      2.25% |     3079158     97.53%     99.78% |        6857      0.22%    100.00%
system.ruby.L1Cache_Controller.Data_Exclusive::total      3156994                      
system.ruby.L1Cache_Controller.DataS_fromL1 |        2716     27.14%     27.14% |        3061     30.59%     57.73% |        1636     16.35%     74.08% |        2594     25.92%    100.00%
system.ruby.L1Cache_Controller.DataS_fromL1::total        10007                      
system.ruby.L1Cache_Controller.Data_all_Acks |       72641      2.06%      2.06% |       38674      1.10%      3.16% |     3384457     96.04%     99.20% |       28056      0.80%    100.00%
system.ruby.L1Cache_Controller.Data_all_Acks::total      3523828                      
system.ruby.L1Cache_Controller.Ack       |        5746     48.22%     48.22% |        2035     17.08%     65.29% |        2051     17.21%     82.50% |        2085     17.50%    100.00%
system.ruby.L1Cache_Controller.Ack::total        11917                      
system.ruby.L1Cache_Controller.Ack_all   |        3182     39.23%     39.23% |        1779     21.93%     61.16% |        1493     18.41%     79.57% |        1657     20.43%    100.00%
system.ruby.L1Cache_Controller.Ack_all::total         8111                      
system.ruby.L1Cache_Controller.WB_Ack    |       74376      1.15%      1.15% |       17316      0.27%      1.41% |     6397393     98.50%     99.91% |        5813      0.09%    100.00%
system.ruby.L1Cache_Controller.WB_Ack::total      6494898                      
system.ruby.L1Cache_Controller.NP.Load   |       62130      1.95%      1.95% |       16687      0.52%      2.47% |     3102941     97.27%     99.74% |        8296      0.26%    100.00%
system.ruby.L1Cache_Controller.NP.Load::total      3190054                      
system.ruby.L1Cache_Controller.NP.Ifetch |       39110     35.75%     35.75% |       20956     19.16%     54.91% |       35909     32.83%     87.74% |       13414     12.26%    100.00%
system.ruby.L1Cache_Controller.NP.Ifetch::total       109389                      
system.ruby.L1Cache_Controller.NP.Store  |       20295      0.61%      0.61% |        7371      0.22%      0.83% |     3319578     99.09%     99.91% |        2881      0.09%    100.00%
system.ruby.L1Cache_Controller.NP.Store::total      3350125                      
system.ruby.L1Cache_Controller.NP.Inv    |        6496     35.59%     35.59% |        3083     16.89%     52.48% |        6224     34.10%     86.58% |        2450     13.42%    100.00%
system.ruby.L1Cache_Controller.NP.Inv::total        18253                      
system.ruby.L1Cache_Controller.I.Load    |        3186     23.88%     23.88% |        4468     33.48%     57.36% |         836      6.26%     63.62% |        4854     36.38%    100.00%
system.ruby.L1Cache_Controller.I.Load::total        13344                      
system.ruby.L1Cache_Controller.I.Ifetch  |        5839     26.01%     26.01% |        4836     21.55%     47.56% |        6020     26.82%     74.38% |        5751     25.62%    100.00%
system.ruby.L1Cache_Controller.I.Ifetch::total        22446                      
system.ruby.L1Cache_Controller.I.Store   |        2204     31.85%     31.85% |        1812     26.19%     58.04% |         372      5.38%     63.42% |        2531     36.58%    100.00%
system.ruby.L1Cache_Controller.I.Store::total         6919                      
system.ruby.L1Cache_Controller.I.L1_Replacement |        2944     25.77%     25.77% |        2890     25.30%     51.08% |        2569     22.49%     73.57% |        3019     26.43%    100.00%
system.ruby.L1Cache_Controller.I.L1_Replacement::total        11422                      
system.ruby.L1Cache_Controller.S.Load    |      226834     37.10%     37.10% |      103523     16.93%     54.03% |      200617     32.81%     86.83% |       80515     13.17%    100.00%
system.ruby.L1Cache_Controller.S.Load::total       611489                      
system.ruby.L1Cache_Controller.S.Ifetch  |    16889700      2.15%      2.15% |     4034497      0.51%      2.66% |   763408662     97.06%     99.72% |     2222899      0.28%    100.00%
system.ruby.L1Cache_Controller.S.Ifetch::total    786555758                      
system.ruby.L1Cache_Controller.S.Store   |        2597     38.98%     38.98% |        1541     23.13%     62.10% |        1088     16.33%     78.43% |        1437     21.57%    100.00%
system.ruby.L1Cache_Controller.S.Store::total         6663                      
system.ruby.L1Cache_Controller.S.Inv     |        9493     24.56%     24.56% |        9795     25.34%     49.90% |        8418     21.78%     71.68% |       10946     28.32%    100.00%
system.ruby.L1Cache_Controller.S.Inv::total        38652                      
system.ruby.L1Cache_Controller.S.L1_Replacement |       44215     30.93%     30.93% |       24614     17.22%     48.14% |       58466     40.89%     89.03% |       15678     10.97%    100.00%
system.ruby.L1Cache_Controller.S.L1_Replacement::total       142973                      
system.ruby.L1Cache_Controller.E.Load    |      411225      0.88%      0.88% |      145169      0.31%      1.19% |    46078783     98.65%     99.84% |       74189      0.16%    100.00%
system.ruby.L1Cache_Controller.E.Load::total     46709366                      
system.ruby.L1Cache_Controller.E.Store   |       36844      2.36%      2.36% |        4683      0.30%      2.66% |     1516823     97.24%     99.90% |        1551      0.10%    100.00%
system.ruby.L1Cache_Controller.E.Store::total      1559901                      
system.ruby.L1Cache_Controller.E.Inv     |        1440     29.83%     29.83% |        1260     26.10%     55.94% |         561     11.62%     67.56% |        1566     32.44%    100.00%
system.ruby.L1Cache_Controller.E.Inv::total         4827                      
system.ruby.L1Cache_Controller.E.L1_Replacement |       17974      1.13%      1.13% |        6304      0.40%      1.53% |     1561229     98.31%     99.84% |        2605      0.16%    100.00%
system.ruby.L1Cache_Controller.E.L1_Replacement::total      1588112                      
system.ruby.L1Cache_Controller.E.Fwd_GETX |         204     39.61%     39.61% |         228     44.27%     83.88% |          33      6.41%     90.29% |          50      9.71%    100.00%
system.ruby.L1Cache_Controller.E.Fwd_GETX::total          515                      
system.ruby.L1Cache_Controller.E.Fwd_GETS |         580     16.17%     16.17% |        1625     45.30%     61.47% |         311      8.67%     70.14% |        1071     29.86%    100.00%
system.ruby.L1Cache_Controller.E.Fwd_GETS::total         3587                      
system.ruby.L1Cache_Controller.M.Load    |     2093431      3.41%      3.41% |      552769      0.90%      4.31% |    58407876     95.17%     99.48% |      321211      0.52%    100.00%
system.ruby.L1Cache_Controller.M.Load::total     61375287                      
system.ruby.L1Cache_Controller.M.Store   |     2120416      3.74%      3.74% |      635362      1.12%      4.86% |    53671205     94.56%     99.42% |      330769      0.58%    100.00%
system.ruby.L1Cache_Controller.M.Store::total     56757752                      
system.ruby.L1Cache_Controller.M.Inv     |        2747     34.63%     34.63% |        2184     27.53%     62.16% |         239      3.01%     65.17% |        2763     34.83%    100.00%
system.ruby.L1Cache_Controller.M.Inv::total         7933                      
system.ruby.L1Cache_Controller.M.L1_Replacement |       56402      1.15%      1.15% |       11012      0.22%      1.37% |     4836164     98.56%     99.93% |        3208      0.07%    100.00%
system.ruby.L1Cache_Controller.M.L1_Replacement::total      4906786                      
system.ruby.L1Cache_Controller.M.Fwd_GETX |         445     17.95%     17.95% |         613     24.73%     42.68% |         452     18.23%     60.91% |         969     39.09%    100.00%
system.ruby.L1Cache_Controller.M.Fwd_GETX::total         2479                      
system.ruby.L1Cache_Controller.M.Fwd_GETS |        2284     35.58%     35.58% |        1584     24.67%     60.25% |        1045     16.28%     76.53% |        1507     23.47%    100.00%
system.ruby.L1Cache_Controller.M.Fwd_GETS::total         6420                      
system.ruby.L1Cache_Controller.IS.Data_Exclusive |       56822      1.80%      1.80% |       14157      0.45%      2.25% |     3079158     97.53%     99.78% |        6857      0.22%    100.00%
system.ruby.L1Cache_Controller.IS.Data_Exclusive::total      3156994                      
system.ruby.L1Cache_Controller.IS.DataS_fromL1 |        2716     27.14%     27.14% |        3061     30.59%     57.73% |        1636     16.35%     74.08% |        2594     25.92%    100.00%
system.ruby.L1Cache_Controller.IS.DataS_fromL1::total        10007                      
system.ruby.L1Cache_Controller.IS.Data_all_Acks |       50727     30.15%     30.15% |       29729     17.67%     47.82% |       64912     38.58%     86.41% |       22864     13.59%    100.00%
system.ruby.L1Cache_Controller.IS.Data_all_Acks::total       168232                      
system.ruby.L1Cache_Controller.IM.Data   |         586     40.44%     40.44% |         238     16.43%     56.87% |         405     27.95%     84.82% |         220     15.18%    100.00%
system.ruby.L1Cache_Controller.IM.Data::total         1449                      
system.ruby.L1Cache_Controller.IM.Data_all_Acks |       21914      0.65%      0.65% |        8945      0.27%      0.92% |     3319545     98.93%     99.85% |        5192      0.15%    100.00%
system.ruby.L1Cache_Controller.IM.Data_all_Acks::total      3355596                      
system.ruby.L1Cache_Controller.IM.Ack    |          11     68.75%     68.75% |           0      0.00%     68.75% |           3     18.75%     87.50% |           2     12.50%    100.00%
system.ruby.L1Cache_Controller.IM.Ack::total           16                      
system.ruby.L1Cache_Controller.SM.Inv    |           1    100.00%    100.00% |           0      0.00%    100.00% |           0      0.00%    100.00% |           0      0.00%    100.00%
system.ruby.L1Cache_Controller.SM.Inv::total            1                      
system.ruby.L1Cache_Controller.SM.Ack    |        5735     48.19%     48.19% |        2035     17.10%     65.29% |        2048     17.21%     82.50% |        2083     17.50%    100.00%
system.ruby.L1Cache_Controller.SM.Ack::total        11901                      
system.ruby.L1Cache_Controller.SM.Ack_all |        3182     39.23%     39.23% |        1779     21.93%     61.16% |        1493     18.41%     79.57% |        1657     20.43%    100.00%
system.ruby.L1Cache_Controller.SM.Ack_all::total         8111                      
system.ruby.L1Cache_Controller.M_I.Ifetch |           1    100.00%    100.00% |           0      0.00%    100.00% |           0      0.00%    100.00% |           0      0.00%    100.00%
system.ruby.L1Cache_Controller.M_I.Ifetch::total            1                      
system.ruby.L1Cache_Controller.M_I.WB_Ack |       74376      1.15%      1.15% |       17316      0.27%      1.41% |     6397393     98.50%     99.91% |        5813      0.09%    100.00%
system.ruby.L1Cache_Controller.M_I.WB_Ack::total      6494898                      
system.ruby.L2Cache_Controller.L1_GET_INSTR       131844      0.00%      0.00%
system.ruby.L2Cache_Controller.L1_GETS        3203488      0.00%      0.00%
system.ruby.L2Cache_Controller.L1_GETX        3357048      0.00%      0.00%
system.ruby.L2Cache_Controller.L1_UPGRADE         6663      0.00%      0.00%
system.ruby.L2Cache_Controller.L1_PUTX        6494898      0.00%      0.00%
system.ruby.L2Cache_Controller.L2_Replacement       805624      0.00%      0.00%
system.ruby.L2Cache_Controller.L2_Replacement_clean       568527      0.00%      0.00%
system.ruby.L2Cache_Controller.Mem_Data       1377363      0.00%      0.00%
system.ruby.L2Cache_Controller.Mem_Ack        1374154      0.00%      0.00%
system.ruby.L2Cache_Controller.WB_Data          14353      0.00%      0.00%
system.ruby.L2Cache_Controller.WB_Data_clean         3587      0.00%      0.00%
system.ruby.L2Cache_Controller.Ack              23232      0.00%      0.00%
system.ruby.L2Cache_Controller.Ack_all          25135      0.00%      0.00%
system.ruby.L2Cache_Controller.Unblock          10007      0.00%      0.00%
system.ruby.L2Cache_Controller.Exclusive_Unblock      6520701      0.00%      0.00%
system.ruby.L2Cache_Controller.MEM_Inv              6      0.00%      0.00%
system.ruby.L2Cache_Controller.NP.L1_GET_INSTR        19580      0.00%      0.00%
system.ruby.L2Cache_Controller.NP.L1_GETS       826030      0.00%      0.00%
system.ruby.L2Cache_Controller.NP.L1_GETX       531753      0.00%      0.00%
system.ruby.L2Cache_Controller.SS.L1_GET_INSTR       112239      0.00%      0.00%
system.ruby.L2Cache_Controller.SS.L1_GETS        36357      0.00%      0.00%
system.ruby.L2Cache_Controller.SS.L1_GETX         1458      0.00%      0.00%
system.ruby.L2Cache_Controller.SS.L1_UPGRADE         6662      0.00%      0.00%
system.ruby.L2Cache_Controller.SS.L2_Replacement          435      0.00%      0.00%
system.ruby.L2Cache_Controller.SS.L2_Replacement_clean        19873      0.00%      0.00%
system.ruby.L2Cache_Controller.M.L1_GET_INSTR           16      0.00%      0.00%
system.ruby.L2Cache_Controller.M.L1_GETS      2330984      0.00%      0.00%
system.ruby.L2Cache_Controller.M.L1_GETX      2820840      0.00%      0.00%
system.ruby.L2Cache_Controller.M.L2_Replacement       804335      0.00%      0.00%
system.ruby.L2Cache_Controller.M.L2_Replacement_clean       536750      0.00%      0.00%
system.ruby.L2Cache_Controller.M.MEM_Inv            1      0.00%      0.00%
system.ruby.L2Cache_Controller.MT.L1_GETS        10007      0.00%      0.00%
system.ruby.L2Cache_Controller.MT.L1_GETX         2994      0.00%      0.00%
system.ruby.L2Cache_Controller.MT.L1_PUTX      6494898      0.00%      0.00%
system.ruby.L2Cache_Controller.MT.L2_Replacement          854      0.00%      0.00%
system.ruby.L2Cache_Controller.MT.L2_Replacement_clean        11904      0.00%      0.00%
system.ruby.L2Cache_Controller.MT.MEM_Inv            2      0.00%      0.00%
system.ruby.L2Cache_Controller.M_I.L1_GET_INSTR            9      0.00%      0.00%
system.ruby.L2Cache_Controller.M_I.L1_GETS            1      0.00%      0.00%
system.ruby.L2Cache_Controller.M_I.Mem_Ack      1374154      0.00%      0.00%
system.ruby.L2Cache_Controller.M_I.MEM_Inv            1      0.00%      0.00%
system.ruby.L2Cache_Controller.MT_I.WB_Data          665      0.00%      0.00%
system.ruby.L2Cache_Controller.MT_I.Ack_all          191      0.00%      0.00%
system.ruby.L2Cache_Controller.MT_I.MEM_Inv            2      0.00%      0.00%
system.ruby.L2Cache_Controller.MCT_I.WB_Data         7268      0.00%      0.00%
system.ruby.L2Cache_Controller.MCT_I.Ack_all         4636      0.00%      0.00%
system.ruby.L2Cache_Controller.I_I.Ack          22717      0.00%      0.00%
system.ruby.L2Cache_Controller.I_I.Ack_all        19873      0.00%      0.00%
system.ruby.L2Cache_Controller.S_I.Ack            515      0.00%      0.00%
system.ruby.L2Cache_Controller.S_I.Ack_all          435      0.00%      0.00%
system.ruby.L2Cache_Controller.ISS.L1_GETS           20      0.00%      0.00%
system.ruby.L2Cache_Controller.ISS.Mem_Data       826010      0.00%      0.00%
system.ruby.L2Cache_Controller.IS.Mem_Data        19600      0.00%      0.00%
system.ruby.L2Cache_Controller.IM.Mem_Data       531753      0.00%      0.00%
system.ruby.L2Cache_Controller.SS_MB.L1_GETS           76      0.00%      0.00%
system.ruby.L2Cache_Controller.SS_MB.L1_UPGRADE            1      0.00%      0.00%
system.ruby.L2Cache_Controller.SS_MB.Exclusive_Unblock         8120      0.00%      0.00%
system.ruby.L2Cache_Controller.MT_MB.L1_GETS           10      0.00%      0.00%
system.ruby.L2Cache_Controller.MT_MB.L1_GETX            2      0.00%      0.00%
system.ruby.L2Cache_Controller.MT_MB.Exclusive_Unblock      6512581      0.00%      0.00%
system.ruby.L2Cache_Controller.MT_IIB.L1_GETS            3      0.00%      0.00%
system.ruby.L2Cache_Controller.MT_IIB.L1_GETX            1      0.00%      0.00%
system.ruby.L2Cache_Controller.MT_IIB.Unblock        10007      0.00%      0.00%
system.ruby.L2Cache_Controller.MT_IB.WB_Data         6420      0.00%      0.00%
system.ruby.L2Cache_Controller.MT_IB.WB_Data_clean         3587      0.00%      0.00%

---------- End Simulation Statistics   ----------
