
---------- Begin Simulation Statistics ----------
sim_seconds                                  4.056037                       # Number of seconds simulated
sim_ticks                                4056037098500                       # Number of ticks simulated
final_tick                               56248780899501                       # Number of ticks from beginning of simulation (restored from checkpoints and never reset)
sim_freq                                 1000000000000                       # Frequency of simulated ticks
host_inst_rate                                 166915                       # Simulator instruction rate (inst/s)
host_op_rate                                   234030                       # Simulator op (including micro ops) rate (op/s)
host_tick_rate                              300763928                       # Simulator tick rate (ticks/s)
host_mem_usage                                1910496                       # Number of bytes of host memory used
host_seconds                                 13485.78                       # Real time elapsed on the host
sim_insts                                  2250981799                       # Number of instructions simulated
sim_ops                                    3156071155                       # Number of ops (including micro ops) simulated
system.voltage_domain.voltage                       1                       # Voltage in Volts
system.clk_domain.clock                          1000                       # Clock period in ticks
system.mem_ctrls.bytes_read::ruby.dir_cntrl0    254584640                       # Number of bytes read from this memory
system.mem_ctrls.bytes_read::total          254584640                       # Number of bytes read from this memory
system.mem_ctrls.bytes_written::ruby.dir_cntrl0    254658752                       # Number of bytes written to this memory
system.mem_ctrls.bytes_written::total       254658752                       # Number of bytes written to this memory
system.mem_ctrls.num_reads::ruby.dir_cntrl0      3977885                       # Number of read requests responded to by this memory
system.mem_ctrls.num_reads::total             3977885                       # Number of read requests responded to by this memory
system.mem_ctrls.num_writes::ruby.dir_cntrl0      3979043                       # Number of write requests responded to by this memory
system.mem_ctrls.num_writes::total            3979043                       # Number of write requests responded to by this memory
system.mem_ctrls.bw_read::ruby.dir_cntrl0     62766842                       # Total read bandwidth from this memory (bytes/s)
system.mem_ctrls.bw_read::total              62766842                       # Total read bandwidth from this memory (bytes/s)
system.mem_ctrls.bw_write::ruby.dir_cntrl0     62785114                       # Write bandwidth from this memory (bytes/s)
system.mem_ctrls.bw_write::total             62785114                       # Write bandwidth from this memory (bytes/s)
system.mem_ctrls.bw_total::ruby.dir_cntrl0    125551956                       # Total bandwidth to/from this memory (bytes/s)
system.mem_ctrls.bw_total::total            125551956                       # Total bandwidth to/from this memory (bytes/s)
system.mem_ctrls.readReqs                     3977885                       # Number of read requests accepted
system.mem_ctrls.writeReqs                    3979043                       # Number of write requests accepted
system.mem_ctrls.readBursts                   3977885                       # Number of DRAM read bursts, including those serviced by the write queue
system.mem_ctrls.writeBursts                  3979043                       # Number of DRAM write bursts, including those merged in the write queue
system.mem_ctrls.bytesReadDRAM              246646784                       # Total number of bytes read from DRAM
system.mem_ctrls.bytesReadWrQ                 7937856                       # Total number of bytes read from write queue
system.mem_ctrls.bytesWritten               254566336                       # Total number of bytes written to DRAM
system.mem_ctrls.bytesReadSys               254584640                       # Total read bytes from the system interface side
system.mem_ctrls.bytesWrittenSys            254658752                       # Total written bytes from the system interface side
system.mem_ctrls.servicedByWrQ                 124029                       # Number of DRAM read bursts serviced by the write queue
system.mem_ctrls.mergedWrBursts                  1448                       # Number of DRAM write bursts merged with an existing one
system.mem_ctrls.neitherReadNorWriteReqs            0                       # Number of requests that are neither read nor write
system.mem_ctrls.perBankRdBursts::0            272138                       # Per bank write bursts
system.mem_ctrls.perBankRdBursts::1            243826                       # Per bank write bursts
system.mem_ctrls.perBankRdBursts::2            265597                       # Per bank write bursts
system.mem_ctrls.perBankRdBursts::3            239240                       # Per bank write bursts
system.mem_ctrls.perBankRdBursts::4            236401                       # Per bank write bursts
system.mem_ctrls.perBankRdBursts::5            210778                       # Per bank write bursts
system.mem_ctrls.perBankRdBursts::6            228426                       # Per bank write bursts
system.mem_ctrls.perBankRdBursts::7            215656                       # Per bank write bursts
system.mem_ctrls.perBankRdBursts::8            253527                       # Per bank write bursts
system.mem_ctrls.perBankRdBursts::9            233858                       # Per bank write bursts
system.mem_ctrls.perBankRdBursts::10           219976                       # Per bank write bursts
system.mem_ctrls.perBankRdBursts::11           276149                       # Per bank write bursts
system.mem_ctrls.perBankRdBursts::12           235565                       # Per bank write bursts
system.mem_ctrls.perBankRdBursts::13           222112                       # Per bank write bursts
system.mem_ctrls.perBankRdBursts::14           271980                       # Per bank write bursts
system.mem_ctrls.perBankRdBursts::15           228627                       # Per bank write bursts
system.mem_ctrls.perBankWrBursts::0            282653                       # Per bank write bursts
system.mem_ctrls.perBankWrBursts::1            250308                       # Per bank write bursts
system.mem_ctrls.perBankWrBursts::2            272668                       # Per bank write bursts
system.mem_ctrls.perBankWrBursts::3            250887                       # Per bank write bursts
system.mem_ctrls.perBankWrBursts::4            244625                       # Per bank write bursts
system.mem_ctrls.perBankWrBursts::5            215139                       # Per bank write bursts
system.mem_ctrls.perBankWrBursts::6            232823                       # Per bank write bursts
system.mem_ctrls.perBankWrBursts::7            220776                       # Per bank write bursts
system.mem_ctrls.perBankWrBursts::8            264147                       # Per bank write bursts
system.mem_ctrls.perBankWrBursts::9            242565                       # Per bank write bursts
system.mem_ctrls.perBankWrBursts::10           225444                       # Per bank write bursts
system.mem_ctrls.perBankWrBursts::11           286637                       # Per bank write bursts
system.mem_ctrls.perBankWrBursts::12           243683                       # Per bank write bursts
system.mem_ctrls.perBankWrBursts::13           226965                       # Per bank write bursts
system.mem_ctrls.perBankWrBursts::14           283957                       # Per bank write bursts
system.mem_ctrls.perBankWrBursts::15           234322                       # Per bank write bursts
system.mem_ctrls.numRdRetry                         0                       # Number of times read queue was full causing retry
system.mem_ctrls.numWrRetry                         0                       # Number of times write queue was full causing retry
system.mem_ctrls.totGap                  4056037102500                       # Total gap between requests
system.mem_ctrls.readPktSize::0                     0                       # Read request sizes (log2)
system.mem_ctrls.readPktSize::1                     0                       # Read request sizes (log2)
system.mem_ctrls.readPktSize::2                     0                       # Read request sizes (log2)
system.mem_ctrls.readPktSize::3                     0                       # Read request sizes (log2)
system.mem_ctrls.readPktSize::4                     0                       # Read request sizes (log2)
system.mem_ctrls.readPktSize::5                     0                       # Read request sizes (log2)
system.mem_ctrls.readPktSize::6               3977885                       # Read request sizes (log2)
system.mem_ctrls.writePktSize::0                    0                       # Write request sizes (log2)
system.mem_ctrls.writePktSize::1                    0                       # Write request sizes (log2)
system.mem_ctrls.writePktSize::2                    0                       # Write request sizes (log2)
system.mem_ctrls.writePktSize::3                    0                       # Write request sizes (log2)
system.mem_ctrls.writePktSize::4                    0                       # Write request sizes (log2)
system.mem_ctrls.writePktSize::5                    0                       # Write request sizes (log2)
system.mem_ctrls.writePktSize::6              3979043                       # Write request sizes (log2)
system.mem_ctrls.rdQLenPdf::0                 3845739                       # What read queue length does an incoming req see
system.mem_ctrls.rdQLenPdf::1                    8014                       # What read queue length does an incoming req see
system.mem_ctrls.rdQLenPdf::2                     103                       # What read queue length does an incoming req see
system.mem_ctrls.rdQLenPdf::3                       0                       # What read queue length does an incoming req see
system.mem_ctrls.rdQLenPdf::4                       0                       # What read queue length does an incoming req see
system.mem_ctrls.rdQLenPdf::5                       0                       # What read queue length does an incoming req see
system.mem_ctrls.rdQLenPdf::6                       0                       # What read queue length does an incoming req see
system.mem_ctrls.rdQLenPdf::7                       0                       # What read queue length does an incoming req see
system.mem_ctrls.rdQLenPdf::8                       0                       # What read queue length does an incoming req see
system.mem_ctrls.rdQLenPdf::9                       0                       # What read queue length does an incoming req see
system.mem_ctrls.rdQLenPdf::10                      0                       # What read queue length does an incoming req see
system.mem_ctrls.rdQLenPdf::11                      0                       # What read queue length does an incoming req see
system.mem_ctrls.rdQLenPdf::12                      0                       # What read queue length does an incoming req see
system.mem_ctrls.rdQLenPdf::13                      0                       # What read queue length does an incoming req see
system.mem_ctrls.rdQLenPdf::14                      0                       # What read queue length does an incoming req see
system.mem_ctrls.rdQLenPdf::15                      0                       # What read queue length does an incoming req see
system.mem_ctrls.rdQLenPdf::16                      0                       # What read queue length does an incoming req see
system.mem_ctrls.rdQLenPdf::17                      0                       # What read queue length does an incoming req see
system.mem_ctrls.rdQLenPdf::18                      0                       # What read queue length does an incoming req see
system.mem_ctrls.rdQLenPdf::19                      0                       # What read queue length does an incoming req see
system.mem_ctrls.rdQLenPdf::20                      0                       # What read queue length does an incoming req see
system.mem_ctrls.rdQLenPdf::21                      0                       # What read queue length does an incoming req see
system.mem_ctrls.rdQLenPdf::22                      0                       # What read queue length does an incoming req see
system.mem_ctrls.rdQLenPdf::23                      0                       # What read queue length does an incoming req see
system.mem_ctrls.rdQLenPdf::24                      0                       # What read queue length does an incoming req see
system.mem_ctrls.rdQLenPdf::25                      0                       # What read queue length does an incoming req see
system.mem_ctrls.rdQLenPdf::26                      0                       # What read queue length does an incoming req see
system.mem_ctrls.rdQLenPdf::27                      0                       # What read queue length does an incoming req see
system.mem_ctrls.rdQLenPdf::28                      0                       # What read queue length does an incoming req see
system.mem_ctrls.rdQLenPdf::29                      0                       # What read queue length does an incoming req see
system.mem_ctrls.rdQLenPdf::30                      0                       # What read queue length does an incoming req see
system.mem_ctrls.rdQLenPdf::31                      0                       # What read queue length does an incoming req see
system.mem_ctrls.wrQLenPdf::0                       0                       # What write queue length does an incoming req see
system.mem_ctrls.wrQLenPdf::1                       0                       # What write queue length does an incoming req see
system.mem_ctrls.wrQLenPdf::2                       0                       # What write queue length does an incoming req see
system.mem_ctrls.wrQLenPdf::3                       0                       # What write queue length does an incoming req see
system.mem_ctrls.wrQLenPdf::4                       0                       # What write queue length does an incoming req see
system.mem_ctrls.wrQLenPdf::5                       0                       # What write queue length does an incoming req see
system.mem_ctrls.wrQLenPdf::6                       0                       # What write queue length does an incoming req see
system.mem_ctrls.wrQLenPdf::7                       0                       # What write queue length does an incoming req see
system.mem_ctrls.wrQLenPdf::8                       0                       # What write queue length does an incoming req see
system.mem_ctrls.wrQLenPdf::9                       0                       # What write queue length does an incoming req see
system.mem_ctrls.wrQLenPdf::10                      0                       # What write queue length does an incoming req see
system.mem_ctrls.wrQLenPdf::11                      0                       # What write queue length does an incoming req see
system.mem_ctrls.wrQLenPdf::12                      0                       # What write queue length does an incoming req see
system.mem_ctrls.wrQLenPdf::13                      0                       # What write queue length does an incoming req see
system.mem_ctrls.wrQLenPdf::14                      0                       # What write queue length does an incoming req see
system.mem_ctrls.wrQLenPdf::15                  11688                       # What write queue length does an incoming req see
system.mem_ctrls.wrQLenPdf::16                  13168                       # What write queue length does an incoming req see
system.mem_ctrls.wrQLenPdf::17                 241785                       # What write queue length does an incoming req see
system.mem_ctrls.wrQLenPdf::18                 247296                       # What write queue length does an incoming req see
system.mem_ctrls.wrQLenPdf::19                 248144                       # What write queue length does an incoming req see
system.mem_ctrls.wrQLenPdf::20                 247811                       # What write queue length does an incoming req see
system.mem_ctrls.wrQLenPdf::21                 247818                       # What write queue length does an incoming req see
system.mem_ctrls.wrQLenPdf::22                 248109                       # What write queue length does an incoming req see
system.mem_ctrls.wrQLenPdf::23                 248256                       # What write queue length does an incoming req see
system.mem_ctrls.wrQLenPdf::24                 248258                       # What write queue length does an incoming req see
system.mem_ctrls.wrQLenPdf::25                 247954                       # What write queue length does an incoming req see
system.mem_ctrls.wrQLenPdf::26                 247124                       # What write queue length does an incoming req see
system.mem_ctrls.wrQLenPdf::27                 246666                       # What write queue length does an incoming req see
system.mem_ctrls.wrQLenPdf::28                 246624                       # What write queue length does an incoming req see
system.mem_ctrls.wrQLenPdf::29                 246612                       # What write queue length does an incoming req see
system.mem_ctrls.wrQLenPdf::30                 246592                       # What write queue length does an incoming req see
system.mem_ctrls.wrQLenPdf::31                 246580                       # What write queue length does an incoming req see
system.mem_ctrls.wrQLenPdf::32                 246572                       # What write queue length does an incoming req see
system.mem_ctrls.wrQLenPdf::33                    277                       # What write queue length does an incoming req see
system.mem_ctrls.wrQLenPdf::34                    119                       # What write queue length does an incoming req see
system.mem_ctrls.wrQLenPdf::35                     63                       # What write queue length does an incoming req see
system.mem_ctrls.wrQLenPdf::36                     43                       # What write queue length does an incoming req see
system.mem_ctrls.wrQLenPdf::37                     19                       # What write queue length does an incoming req see
system.mem_ctrls.wrQLenPdf::38                      9                       # What write queue length does an incoming req see
system.mem_ctrls.wrQLenPdf::39                      3                       # What write queue length does an incoming req see
system.mem_ctrls.wrQLenPdf::40                      3                       # What write queue length does an incoming req see
system.mem_ctrls.wrQLenPdf::41                      2                       # What write queue length does an incoming req see
system.mem_ctrls.wrQLenPdf::42                      0                       # What write queue length does an incoming req see
system.mem_ctrls.wrQLenPdf::43                      0                       # What write queue length does an incoming req see
system.mem_ctrls.wrQLenPdf::44                      0                       # What write queue length does an incoming req see
system.mem_ctrls.wrQLenPdf::45                      0                       # What write queue length does an incoming req see
system.mem_ctrls.wrQLenPdf::46                      0                       # What write queue length does an incoming req see
system.mem_ctrls.wrQLenPdf::47                      0                       # What write queue length does an incoming req see
system.mem_ctrls.wrQLenPdf::48                      0                       # What write queue length does an incoming req see
system.mem_ctrls.wrQLenPdf::49                      0                       # What write queue length does an incoming req see
system.mem_ctrls.wrQLenPdf::50                      0                       # What write queue length does an incoming req see
system.mem_ctrls.wrQLenPdf::51                      0                       # What write queue length does an incoming req see
system.mem_ctrls.wrQLenPdf::52                      0                       # What write queue length does an incoming req see
system.mem_ctrls.wrQLenPdf::53                      0                       # What write queue length does an incoming req see
system.mem_ctrls.wrQLenPdf::54                      0                       # What write queue length does an incoming req see
system.mem_ctrls.wrQLenPdf::55                      0                       # What write queue length does an incoming req see
system.mem_ctrls.wrQLenPdf::56                      0                       # What write queue length does an incoming req see
system.mem_ctrls.wrQLenPdf::57                      0                       # What write queue length does an incoming req see
system.mem_ctrls.wrQLenPdf::58                      0                       # What write queue length does an incoming req see
system.mem_ctrls.wrQLenPdf::59                      0                       # What write queue length does an incoming req see
system.mem_ctrls.wrQLenPdf::60                      0                       # What write queue length does an incoming req see
system.mem_ctrls.wrQLenPdf::61                      0                       # What write queue length does an incoming req see
system.mem_ctrls.wrQLenPdf::62                      0                       # What write queue length does an incoming req see
system.mem_ctrls.wrQLenPdf::63                      0                       # What write queue length does an incoming req see
system.mem_ctrls.bytesPerActivate::samples      4612861                       # Bytes accessed per row activation
system.mem_ctrls.bytesPerActivate::mean    108.655518                       # Bytes accessed per row activation
system.mem_ctrls.bytesPerActivate::gmean    88.742834                       # Bytes accessed per row activation
system.mem_ctrls.bytesPerActivate::stdev   106.362532                       # Bytes accessed per row activation
system.mem_ctrls.bytesPerActivate::0-127      3090083     66.99%     66.99% # Bytes accessed per row activation
system.mem_ctrls.bytesPerActivate::128-255      1205445     26.13%     93.12% # Bytes accessed per row activation
system.mem_ctrls.bytesPerActivate::256-383       175073      3.80%     96.92% # Bytes accessed per row activation
system.mem_ctrls.bytesPerActivate::384-511        60468      1.31%     98.23% # Bytes accessed per row activation
system.mem_ctrls.bytesPerActivate::512-639        33720      0.73%     98.96% # Bytes accessed per row activation
system.mem_ctrls.bytesPerActivate::640-767        18284      0.40%     99.35% # Bytes accessed per row activation
system.mem_ctrls.bytesPerActivate::768-895         8272      0.18%     99.53% # Bytes accessed per row activation
system.mem_ctrls.bytesPerActivate::896-1023         4494      0.10%     99.63% # Bytes accessed per row activation
system.mem_ctrls.bytesPerActivate::1024-1151        17022      0.37%    100.00% # Bytes accessed per row activation
system.mem_ctrls.bytesPerActivate::total      4612861                       # Bytes accessed per row activation
system.mem_ctrls.rdPerTurnAround::samples       246559                       # Reads before turning the bus around for writes
system.mem_ctrls.rdPerTurnAround::mean      15.630579                       # Reads before turning the bus around for writes
system.mem_ctrls.rdPerTurnAround::stdev      3.351776                       # Reads before turning the bus around for writes
system.mem_ctrls.rdPerTurnAround::0-3            2420      0.98%      0.98% # Reads before turning the bus around for writes
system.mem_ctrls.rdPerTurnAround::4-7            4346      1.76%      2.74% # Reads before turning the bus around for writes
system.mem_ctrls.rdPerTurnAround::8-11           6818      2.77%      5.51% # Reads before turning the bus around for writes
system.mem_ctrls.rdPerTurnAround::12-15         45524     18.46%     23.97% # Reads before turning the bus around for writes
system.mem_ctrls.rdPerTurnAround::16-19        181523     73.62%     97.60% # Reads before turning the bus around for writes
system.mem_ctrls.rdPerTurnAround::20-23          4278      1.74%     99.33% # Reads before turning the bus around for writes
system.mem_ctrls.rdPerTurnAround::24-27           478      0.19%     99.52% # Reads before turning the bus around for writes
system.mem_ctrls.rdPerTurnAround::28-31           239      0.10%     99.62% # Reads before turning the bus around for writes
system.mem_ctrls.rdPerTurnAround::32-35           187      0.08%     99.70% # Reads before turning the bus around for writes
system.mem_ctrls.rdPerTurnAround::36-39           132      0.05%     99.75% # Reads before turning the bus around for writes
system.mem_ctrls.rdPerTurnAround::40-43            97      0.04%     99.79% # Reads before turning the bus around for writes
system.mem_ctrls.rdPerTurnAround::44-47            87      0.04%     99.83% # Reads before turning the bus around for writes
system.mem_ctrls.rdPerTurnAround::48-51           109      0.04%     99.87% # Reads before turning the bus around for writes
system.mem_ctrls.rdPerTurnAround::52-55            70      0.03%     99.90% # Reads before turning the bus around for writes
system.mem_ctrls.rdPerTurnAround::56-59            70      0.03%     99.93% # Reads before turning the bus around for writes
system.mem_ctrls.rdPerTurnAround::60-63            69      0.03%     99.95% # Reads before turning the bus around for writes
system.mem_ctrls.rdPerTurnAround::64-67            46      0.02%     99.97% # Reads before turning the bus around for writes
system.mem_ctrls.rdPerTurnAround::68-71            25      0.01%     99.98% # Reads before turning the bus around for writes
system.mem_ctrls.rdPerTurnAround::72-75            14      0.01%     99.99% # Reads before turning the bus around for writes
system.mem_ctrls.rdPerTurnAround::76-79             5      0.00%     99.99% # Reads before turning the bus around for writes
system.mem_ctrls.rdPerTurnAround::80-83             6      0.00%     99.99% # Reads before turning the bus around for writes
system.mem_ctrls.rdPerTurnAround::84-87             6      0.00%    100.00% # Reads before turning the bus around for writes
system.mem_ctrls.rdPerTurnAround::88-91             1      0.00%    100.00% # Reads before turning the bus around for writes
system.mem_ctrls.rdPerTurnAround::92-95             2      0.00%    100.00% # Reads before turning the bus around for writes
system.mem_ctrls.rdPerTurnAround::96-99             4      0.00%    100.00% # Reads before turning the bus around for writes
system.mem_ctrls.rdPerTurnAround::100-103            1      0.00%    100.00% # Reads before turning the bus around for writes
system.mem_ctrls.rdPerTurnAround::108-111            2      0.00%    100.00% # Reads before turning the bus around for writes
system.mem_ctrls.rdPerTurnAround::total        246559                       # Reads before turning the bus around for writes
system.mem_ctrls.wrPerTurnAround::samples       246559                       # Writes before turning the bus around for reads
system.mem_ctrls.wrPerTurnAround::mean      16.132443                       # Writes before turning the bus around for reads
system.mem_ctrls.wrPerTurnAround::gmean     16.122389                       # Writes before turning the bus around for reads
system.mem_ctrls.wrPerTurnAround::stdev      0.604046                       # Writes before turning the bus around for reads
system.mem_ctrls.wrPerTurnAround::16           233565     94.73%     94.73% # Writes before turning the bus around for reads
system.mem_ctrls.wrPerTurnAround::17              658      0.27%     95.00% # Writes before turning the bus around for reads
system.mem_ctrls.wrPerTurnAround::18             7849      3.18%     98.18% # Writes before turning the bus around for reads
system.mem_ctrls.wrPerTurnAround::19             2108      0.85%     99.04% # Writes before turning the bus around for reads
system.mem_ctrls.wrPerTurnAround::20             2107      0.85%     99.89% # Writes before turning the bus around for reads
system.mem_ctrls.wrPerTurnAround::21              210      0.09%     99.97% # Writes before turning the bus around for reads
system.mem_ctrls.wrPerTurnAround::22               21      0.01%     99.98% # Writes before turning the bus around for reads
system.mem_ctrls.wrPerTurnAround::23                9      0.00%     99.99% # Writes before turning the bus around for reads
system.mem_ctrls.wrPerTurnAround::24               15      0.01%     99.99% # Writes before turning the bus around for reads
system.mem_ctrls.wrPerTurnAround::25                3      0.00%     99.99% # Writes before turning the bus around for reads
system.mem_ctrls.wrPerTurnAround::26                7      0.00%    100.00% # Writes before turning the bus around for reads
system.mem_ctrls.wrPerTurnAround::27                1      0.00%    100.00% # Writes before turning the bus around for reads
system.mem_ctrls.wrPerTurnAround::28                3      0.00%    100.00% # Writes before turning the bus around for reads
system.mem_ctrls.wrPerTurnAround::30                1      0.00%    100.00% # Writes before turning the bus around for reads
system.mem_ctrls.wrPerTurnAround::31                2      0.00%    100.00% # Writes before turning the bus around for reads
system.mem_ctrls.wrPerTurnAround::total        246559                       # Writes before turning the bus around for reads
system.mem_ctrls.totQLat                  72771351657                       # Total ticks spent queuing
system.mem_ctrls.totMemAccLat            145031151657                       # Total ticks spent from burst creation until serviced by the DRAM
system.mem_ctrls.totBusLat                19269280000                       # Total ticks spent in databus transfers
system.mem_ctrls.avgQLat                     18882.74                       # Average queueing delay per DRAM burst
system.mem_ctrls.avgBusLat                    5000.00                       # Average bus latency per DRAM burst
system.mem_ctrls.avgMemAccLat                37632.74                       # Average memory access latency per DRAM burst
system.mem_ctrls.avgRdBW                        60.81                       # Average DRAM read bandwidth in MiByte/s
system.mem_ctrls.avgWrBW                        62.76                       # Average achieved write bandwidth in MiByte/s
system.mem_ctrls.avgRdBWSys                     62.77                       # Average system read bandwidth in MiByte/s
system.mem_ctrls.avgWrBWSys                     62.79                       # Average system write bandwidth in MiByte/s
system.mem_ctrls.peakBW                      12800.00                       # Theoretical peak bandwidth in MiByte/s
system.mem_ctrls.busUtil                         0.97                       # Data bus utilization in percentage
system.mem_ctrls.busUtilRead                     0.48                       # Data bus utilization in percentage for reads
system.mem_ctrls.busUtilWrite                    0.49                       # Data bus utilization in percentage for writes
system.mem_ctrls.avgRdQLen                       1.00                       # Average read queue length when enqueuing
system.mem_ctrls.avgWrQLen                      25.44                       # Average write queue length when enqueuing
system.mem_ctrls.readRowHits                  1908740                       # Number of row buffer hits during reads
system.mem_ctrls.writeRowHits                 1309854                       # Number of row buffer hits during writes
system.mem_ctrls.readRowHitRate                 49.53                       # Row buffer hit rate for reads
system.mem_ctrls.writeRowHitRate                32.93                       # Row buffer hit rate for writes
system.mem_ctrls.avgGap                     509749.13                       # Average gap between requests
system.mem_ctrls.pageHitRate                    41.10                       # Row buffer hit rate, read and write combined
system.mem_ctrls_0.actEnergy              17321290560                       # Energy for activate commands per rank (pJ)
system.mem_ctrls_0.preEnergy               9451101000                       # Energy for precharge commands per rank (pJ)
system.mem_ctrls_0.readEnergy             15084552600                       # Energy for read commands per rank (pJ)
system.mem_ctrls_0.writeEnergy            12900060000                       # Energy for write commands per rank (pJ)
system.mem_ctrls_0.refreshEnergy         265240485120                       # Energy for refresh commands per rank (pJ)
system.mem_ctrls_0.actBackEnergy         877735847925                       # Energy for active background per rank (pJ)
system.mem_ctrls_0.preBackEnergy         1666616985750                       # Energy for precharge background per rank (pJ)
system.mem_ctrls_0.totalEnergy           2864350322955                       # Total energy per rank (pJ)
system.mem_ctrls_0.averagePower            705.342652                       # Core power per rank (mW)
system.mem_ctrls_0.memoryStateTime::IDLE 2766861108250                       # Time in different power states
system.mem_ctrls_0.memoryStateTime::REF  135439980000                       # Time in different power states
system.mem_ctrls_0.memoryStateTime::PRE_PDN            0                       # Time in different power states
system.mem_ctrls_0.memoryStateTime::ACT  1153735620500                       # Time in different power states
system.mem_ctrls_0.memoryStateTime::ACT_PDN            0                       # Time in different power states
system.mem_ctrls_1.actEnergy              17805606840                       # Energy for activate commands per rank (pJ)
system.mem_ctrls_1.preEnergy               9715360875                       # Energy for precharge commands per rank (pJ)
system.mem_ctrls_1.readEnergy             15275052000                       # Energy for read commands per rank (pJ)
system.mem_ctrls_1.writeEnergy            13112448480                       # Energy for write commands per rank (pJ)
system.mem_ctrls_1.refreshEnergy         265240485120                       # Energy for refresh commands per rank (pJ)
system.mem_ctrls_1.actBackEnergy         913922445555                       # Energy for active background per rank (pJ)
system.mem_ctrls_1.preBackEnergy         1634874356250                       # Energy for precharge background per rank (pJ)
system.mem_ctrls_1.totalEnergy           2869945755120                       # Total energy per rank (pJ)
system.mem_ctrls_1.averagePower            706.720520                       # Core power per rank (mW)
system.mem_ctrls_1.memoryStateTime::IDLE 2713839813000                       # Time in different power states
system.mem_ctrls_1.memoryStateTime::REF  135439980000                       # Time in different power states
system.mem_ctrls_1.memoryStateTime::PRE_PDN            0                       # Time in different power states
system.mem_ctrls_1.memoryStateTime::ACT  1206756915750                       # Time in different power states
system.mem_ctrls_1.memoryStateTime::ACT_PDN            0                       # Time in different power states
system.cpu_voltage_domain.voltage                   1                       # Voltage in Volts
system.cpu_clk_domain.clock                       500                       # Clock period in ticks
system.cpu0.apic_clk_domain.clock                8000                       # Clock period in ticks
system.cpu0.numCycles                      8112268046                       # number of cpu cycles simulated
system.cpu0.numWorkItemsStarted                     0                       # number of work items this cpu started
system.cpu0.numWorkItemsCompleted                   0                       # number of work items this cpu completed
system.cpu0.kern.inst.arm                           0                       # number of arm instructions executed
system.cpu0.kern.inst.quiesce                       0                       # number of quiesce instructions executed
system.cpu0.committedInsts                    3316915                       # Number of instructions committed
system.cpu0.committedOps                      7210064                       # Number of ops (including micro ops) committed
system.cpu0.num_int_alu_accesses              7054789                       # Number of integer alu accesses
system.cpu0.num_fp_alu_accesses                    39                       # Number of float alu accesses
system.cpu0.num_func_calls                     211900                       # number of times a function call or return occured
system.cpu0.num_conditional_control_insts       480739                       # number of instructions that are conditional controls
system.cpu0.num_int_insts                     7054789                       # number of integer instructions
system.cpu0.num_fp_insts                           39                       # number of float instructions
system.cpu0.num_int_register_reads           14333504                       # number of times the integer registers were read
system.cpu0.num_int_register_writes           5842325                       # number of times the integer registers were written
system.cpu0.num_fp_register_reads                  63                       # number of times the floating registers were read
system.cpu0.num_fp_register_writes                 31                       # number of times the floating registers were written
system.cpu0.num_cc_register_reads             3996487                       # number of times the CC registers were read
system.cpu0.num_cc_register_writes            2161727                       # number of times the CC registers were written
system.cpu0.num_mem_refs                      1700604                       # number of memory refs
system.cpu0.num_load_insts                    1048491                       # Number of load instructions
system.cpu0.num_store_insts                    652113                       # Number of store instructions
system.cpu0.num_idle_cycles              8087672239.263936                       # Number of idle cycles
system.cpu0.num_busy_cycles              24595806.736064                       # Number of busy cycles
system.cpu0.not_idle_fraction                0.003032                       # Percentage of non-idle cycles
system.cpu0.idle_fraction                    0.996968                       # Percentage of idle cycles
system.cpu0.Branches                           757111                       # Number of branches fetched
system.cpu0.op_class::No_OpClass               125204      1.74%      1.74% # Class of executed instruction
system.cpu0.op_class::IntAlu                  5328463     73.90%     75.64% # Class of executed instruction
system.cpu0.op_class::IntMult                   13779      0.19%     75.83% # Class of executed instruction
system.cpu0.op_class::IntDiv                    42006      0.58%     76.41% # Class of executed instruction
system.cpu0.op_class::FloatAdd                     30      0.00%     76.41% # Class of executed instruction
system.cpu0.op_class::FloatCmp                      0      0.00%     76.41% # Class of executed instruction
system.cpu0.op_class::FloatCvt                      0      0.00%     76.41% # Class of executed instruction
system.cpu0.op_class::FloatMult                     0      0.00%     76.41% # Class of executed instruction
system.cpu0.op_class::FloatDiv                      0      0.00%     76.41% # Class of executed instruction
system.cpu0.op_class::FloatSqrt                     0      0.00%     76.41% # Class of executed instruction
system.cpu0.op_class::SimdAdd                       0      0.00%     76.41% # Class of executed instruction
system.cpu0.op_class::SimdAddAcc                    0      0.00%     76.41% # Class of executed instruction
system.cpu0.op_class::SimdAlu                       0      0.00%     76.41% # Class of executed instruction
system.cpu0.op_class::SimdCmp                       0      0.00%     76.41% # Class of executed instruction
system.cpu0.op_class::SimdCvt                       0      0.00%     76.41% # Class of executed instruction
system.cpu0.op_class::SimdMisc                      0      0.00%     76.41% # Class of executed instruction
system.cpu0.op_class::SimdMult                      0      0.00%     76.41% # Class of executed instruction
system.cpu0.op_class::SimdMultAcc                   0      0.00%     76.41% # Class of executed instruction
system.cpu0.op_class::SimdShift                     0      0.00%     76.41% # Class of executed instruction
system.cpu0.op_class::SimdShiftAcc                  0      0.00%     76.41% # Class of executed instruction
system.cpu0.op_class::SimdSqrt                      0      0.00%     76.41% # Class of executed instruction
system.cpu0.op_class::SimdFloatAdd                  0      0.00%     76.41% # Class of executed instruction
system.cpu0.op_class::SimdFloatAlu                  0      0.00%     76.41% # Class of executed instruction
system.cpu0.op_class::SimdFloatCmp                  0      0.00%     76.41% # Class of executed instruction
system.cpu0.op_class::SimdFloatCvt                  0      0.00%     76.41% # Class of executed instruction
system.cpu0.op_class::SimdFloatDiv                  0      0.00%     76.41% # Class of executed instruction
system.cpu0.op_class::SimdFloatMisc                 0      0.00%     76.41% # Class of executed instruction
system.cpu0.op_class::SimdFloatMult                 0      0.00%     76.41% # Class of executed instruction
system.cpu0.op_class::SimdFloatMultAcc              0      0.00%     76.41% # Class of executed instruction
system.cpu0.op_class::SimdFloatSqrt                 0      0.00%     76.41% # Class of executed instruction
system.cpu0.op_class::MemRead                 1048491     14.54%     90.96% # Class of executed instruction
system.cpu0.op_class::MemWrite                 652113      9.04%    100.00% # Class of executed instruction
system.cpu0.op_class::IprAccess                     0      0.00%    100.00% # Class of executed instruction
system.cpu0.op_class::InstPrefetch                  0      0.00%    100.00% # Class of executed instruction
system.cpu0.op_class::total                   7210086                       # Class of executed instruction
system.cpu1.apic_clk_domain.clock                8000                       # Clock period in ticks
system.cpu1.numCycles                      8115060648                       # number of cpu cycles simulated
system.cpu1.numWorkItemsStarted                     0                       # number of work items this cpu started
system.cpu1.numWorkItemsCompleted                   0                       # number of work items this cpu completed
system.cpu1.kern.inst.arm                           0                       # number of arm instructions executed
system.cpu1.kern.inst.quiesce                       0                       # number of quiesce instructions executed
system.cpu1.committedInsts                 2239572381                       # Number of instructions committed
system.cpu1.committedOps                   3132103702                       # Number of ops (including micro ops) committed
system.cpu1.num_int_alu_accesses           1365145381                       # Number of integer alu accesses
system.cpu1.num_fp_alu_accesses            2127680380                       # Number of float alu accesses
system.cpu1.num_func_calls                    4841044                       # number of times a function call or return occured
system.cpu1.num_conditional_control_insts    125354859                       # number of instructions that are conditional controls
system.cpu1.num_int_insts                  1365145381                       # number of integer instructions
system.cpu1.num_fp_insts                   2127680380                       # number of float instructions
system.cpu1.num_int_register_reads         2745815657                       # number of times the integer registers were read
system.cpu1.num_int_register_writes         828595026                       # number of times the integer registers were written
system.cpu1.num_fp_register_reads          4601234200                       # number of times the floating registers were read
system.cpu1.num_fp_register_writes         2077617928                       # number of times the floating registers were written
system.cpu1.num_cc_register_reads           735975525                       # number of times the CC registers were read
system.cpu1.num_cc_register_writes          430191260                       # number of times the CC registers were written
system.cpu1.num_mem_refs                    408375399                       # number of memory refs
system.cpu1.num_load_insts                  353638709                       # Number of load instructions
system.cpu1.num_store_insts                  54736690                       # Number of store instructions
system.cpu1.num_idle_cycles              6791775.462328                       # Number of idle cycles
system.cpu1.num_busy_cycles              8108268872.537672                       # Number of busy cycles
system.cpu1.not_idle_fraction                0.999163                       # Percentage of non-idle cycles
system.cpu1.idle_fraction                    0.000837                       # Percentage of idle cycles
system.cpu1.Branches                        163325902                       # Number of branches fetched
system.cpu1.op_class::No_OpClass              2282445      0.07%      0.07% # Class of executed instruction
system.cpu1.op_class::IntAlu               1676777458     53.54%     53.61% # Class of executed instruction
system.cpu1.op_class::IntMult                   82302      0.00%     53.61% # Class of executed instruction
system.cpu1.op_class::IntDiv                    99021      0.00%     53.61% # Class of executed instruction
system.cpu1.op_class::FloatAdd             1044495741     33.35%     86.96% # Class of executed instruction
system.cpu1.op_class::FloatCmp                      0      0.00%     86.96% # Class of executed instruction
system.cpu1.op_class::FloatCvt                      0      0.00%     86.96% # Class of executed instruction
system.cpu1.op_class::FloatMult                     0      0.00%     86.96% # Class of executed instruction
system.cpu1.op_class::FloatDiv                      0      0.00%     86.96% # Class of executed instruction
system.cpu1.op_class::FloatSqrt                     0      0.00%     86.96% # Class of executed instruction
system.cpu1.op_class::SimdAdd                       0      0.00%     86.96% # Class of executed instruction
system.cpu1.op_class::SimdAddAcc                    0      0.00%     86.96% # Class of executed instruction
system.cpu1.op_class::SimdAlu                       0      0.00%     86.96% # Class of executed instruction
system.cpu1.op_class::SimdCmp                       0      0.00%     86.96% # Class of executed instruction
system.cpu1.op_class::SimdCvt                       0      0.00%     86.96% # Class of executed instruction
system.cpu1.op_class::SimdMisc                      0      0.00%     86.96% # Class of executed instruction
system.cpu1.op_class::SimdMult                      0      0.00%     86.96% # Class of executed instruction
system.cpu1.op_class::SimdMultAcc                   0      0.00%     86.96% # Class of executed instruction
system.cpu1.op_class::SimdShift                     0      0.00%     86.96% # Class of executed instruction
system.cpu1.op_class::SimdShiftAcc                  0      0.00%     86.96% # Class of executed instruction
system.cpu1.op_class::SimdSqrt                      0      0.00%     86.96% # Class of executed instruction
system.cpu1.op_class::SimdFloatAdd                  0      0.00%     86.96% # Class of executed instruction
system.cpu1.op_class::SimdFloatAlu                  0      0.00%     86.96% # Class of executed instruction
system.cpu1.op_class::SimdFloatCmp                  0      0.00%     86.96% # Class of executed instruction
system.cpu1.op_class::SimdFloatCvt                  0      0.00%     86.96% # Class of executed instruction
system.cpu1.op_class::SimdFloatDiv                  0      0.00%     86.96% # Class of executed instruction
system.cpu1.op_class::SimdFloatMisc                 0      0.00%     86.96% # Class of executed instruction
system.cpu1.op_class::SimdFloatMult                 0      0.00%     86.96% # Class of executed instruction
system.cpu1.op_class::SimdFloatMultAcc              0      0.00%     86.96% # Class of executed instruction
system.cpu1.op_class::SimdFloatSqrt                 0      0.00%     86.96% # Class of executed instruction
system.cpu1.op_class::MemRead               353638709     11.29%     98.25% # Class of executed instruction
system.cpu1.op_class::MemWrite               54736690      1.75%    100.00% # Class of executed instruction
system.cpu1.op_class::IprAccess                     0      0.00%    100.00% # Class of executed instruction
system.cpu1.op_class::InstPrefetch                  0      0.00%    100.00% # Class of executed instruction
system.cpu1.op_class::total                3132112366                       # Class of executed instruction
system.cpu2.apic_clk_domain.clock                8000                       # Clock period in ticks
system.cpu2.numCycles                      8112281047                       # number of cpu cycles simulated
system.cpu2.numWorkItemsStarted                     0                       # number of work items this cpu started
system.cpu2.numWorkItemsCompleted                   0                       # number of work items this cpu completed
system.cpu2.kern.inst.arm                           0                       # number of arm instructions executed
system.cpu2.kern.inst.quiesce                       0                       # number of quiesce instructions executed
system.cpu2.committedInsts                    2835577                       # Number of instructions committed
system.cpu2.committedOps                      6127186                       # Number of ops (including micro ops) committed
system.cpu2.num_int_alu_accesses              5991527                       # Number of integer alu accesses
system.cpu2.num_fp_alu_accesses                     0                       # Number of float alu accesses
system.cpu2.num_func_calls                     168992                       # number of times a function call or return occured
system.cpu2.num_conditional_control_insts       430606                       # number of instructions that are conditional controls
system.cpu2.num_int_insts                     5991527                       # number of integer instructions
system.cpu2.num_fp_insts                            0                       # number of float instructions
system.cpu2.num_int_register_reads           12177446                       # number of times the integer registers were read
system.cpu2.num_int_register_writes           4974532                       # number of times the integer registers were written
system.cpu2.num_fp_register_reads                   0                       # number of times the floating registers were read
system.cpu2.num_fp_register_writes                  0                       # number of times the floating registers were written
system.cpu2.num_cc_register_reads             3451362                       # number of times the CC registers were read
system.cpu2.num_cc_register_writes            1809871                       # number of times the CC registers were written
system.cpu2.num_mem_refs                      1458927                       # number of memory refs
system.cpu2.num_load_insts                     907324                       # Number of load instructions
system.cpu2.num_store_insts                    551603                       # Number of store instructions
system.cpu2.num_idle_cycles              8087224977.112891                       # Number of idle cycles
system.cpu2.num_busy_cycles              25056069.887109                       # Number of busy cycles
system.cpu2.not_idle_fraction                0.003089                       # Percentage of non-idle cycles
system.cpu2.idle_fraction                    0.996911                       # Percentage of idle cycles
system.cpu2.Branches                           654663                       # Number of branches fetched
system.cpu2.op_class::No_OpClass               116025      1.89%      1.89% # Class of executed instruction
system.cpu2.op_class::IntAlu                  4498426     73.42%     75.31% # Class of executed instruction
system.cpu2.op_class::IntMult                   12483      0.20%     75.51% # Class of executed instruction
system.cpu2.op_class::IntDiv                    41328      0.67%     76.19% # Class of executed instruction
system.cpu2.op_class::FloatAdd                      0      0.00%     76.19% # Class of executed instruction
system.cpu2.op_class::FloatCmp                      0      0.00%     76.19% # Class of executed instruction
system.cpu2.op_class::FloatCvt                      0      0.00%     76.19% # Class of executed instruction
system.cpu2.op_class::FloatMult                     0      0.00%     76.19% # Class of executed instruction
system.cpu2.op_class::FloatDiv                      0      0.00%     76.19% # Class of executed instruction
system.cpu2.op_class::FloatSqrt                     0      0.00%     76.19% # Class of executed instruction
system.cpu2.op_class::SimdAdd                       0      0.00%     76.19% # Class of executed instruction
system.cpu2.op_class::SimdAddAcc                    0      0.00%     76.19% # Class of executed instruction
system.cpu2.op_class::SimdAlu                       0      0.00%     76.19% # Class of executed instruction
system.cpu2.op_class::SimdCmp                       0      0.00%     76.19% # Class of executed instruction
system.cpu2.op_class::SimdCvt                       0      0.00%     76.19% # Class of executed instruction
system.cpu2.op_class::SimdMisc                      0      0.00%     76.19% # Class of executed instruction
system.cpu2.op_class::SimdMult                      0      0.00%     76.19% # Class of executed instruction
system.cpu2.op_class::SimdMultAcc                   0      0.00%     76.19% # Class of executed instruction
system.cpu2.op_class::SimdShift                     0      0.00%     76.19% # Class of executed instruction
system.cpu2.op_class::SimdShiftAcc                  0      0.00%     76.19% # Class of executed instruction
system.cpu2.op_class::SimdSqrt                      0      0.00%     76.19% # Class of executed instruction
system.cpu2.op_class::SimdFloatAdd                  0      0.00%     76.19% # Class of executed instruction
system.cpu2.op_class::SimdFloatAlu                  0      0.00%     76.19% # Class of executed instruction
system.cpu2.op_class::SimdFloatCmp                  0      0.00%     76.19% # Class of executed instruction
system.cpu2.op_class::SimdFloatCvt                  0      0.00%     76.19% # Class of executed instruction
system.cpu2.op_class::SimdFloatDiv                  0      0.00%     76.19% # Class of executed instruction
system.cpu2.op_class::SimdFloatMisc                 0      0.00%     76.19% # Class of executed instruction
system.cpu2.op_class::SimdFloatMult                 0      0.00%     76.19% # Class of executed instruction
system.cpu2.op_class::SimdFloatMultAcc              0      0.00%     76.19% # Class of executed instruction
system.cpu2.op_class::SimdFloatSqrt                 0      0.00%     76.19% # Class of executed instruction
system.cpu2.op_class::MemRead                  907324     14.81%     91.00% # Class of executed instruction
system.cpu2.op_class::MemWrite                 551603      9.00%    100.00% # Class of executed instruction
system.cpu2.op_class::IprAccess                     0      0.00%    100.00% # Class of executed instruction
system.cpu2.op_class::InstPrefetch                  0      0.00%    100.00% # Class of executed instruction
system.cpu2.op_class::total                   6127189                       # Class of executed instruction
system.cpu3.apic_clk_domain.clock                8000                       # Clock period in ticks
system.cpu3.numCycles                      8112049510                       # number of cpu cycles simulated
system.cpu3.numWorkItemsStarted                     0                       # number of work items this cpu started
system.cpu3.numWorkItemsCompleted                   0                       # number of work items this cpu completed
system.cpu3.kern.inst.arm                           0                       # number of arm instructions executed
system.cpu3.kern.inst.quiesce                       0                       # number of quiesce instructions executed
system.cpu3.committedInsts                    3831053                       # Number of instructions committed
system.cpu3.committedOps                      7994519                       # Number of ops (including micro ops) committed
system.cpu3.num_int_alu_accesses              7832238                       # Number of integer alu accesses
system.cpu3.num_fp_alu_accesses                  1814                       # Number of float alu accesses
system.cpu3.num_func_calls                     206534                       # number of times a function call or return occured
system.cpu3.num_conditional_control_insts       597386                       # number of instructions that are conditional controls
system.cpu3.num_int_insts                     7832238                       # number of integer instructions
system.cpu3.num_fp_insts                         1814                       # number of float instructions
system.cpu3.num_int_register_reads           15880621                       # number of times the integer registers were read
system.cpu3.num_int_register_writes           6465125                       # number of times the integer registers were written
system.cpu3.num_fp_register_reads                3048                       # number of times the floating registers were read
system.cpu3.num_fp_register_writes               1440                       # number of times the floating registers were written
system.cpu3.num_cc_register_reads             4611024                       # number of times the CC registers were read
system.cpu3.num_cc_register_writes            2478583                       # number of times the CC registers were written
system.cpu3.num_mem_refs                      1870901                       # number of memory refs
system.cpu3.num_load_insts                    1166952                       # Number of load instructions
system.cpu3.num_store_insts                    703949                       # Number of store instructions
system.cpu3.num_idle_cycles              8083148537.954909                       # Number of idle cycles
system.cpu3.num_busy_cycles              28900972.045091                       # Number of busy cycles
system.cpu3.not_idle_fraction                0.003563                       # Percentage of non-idle cycles
system.cpu3.idle_fraction                    0.996437                       # Percentage of idle cycles
system.cpu3.Branches                           869562                       # Number of branches fetched
system.cpu3.op_class::No_OpClass               126723      1.59%      1.59% # Class of executed instruction
system.cpu3.op_class::IntAlu                  5936812     74.26%     75.85% # Class of executed instruction
system.cpu3.op_class::IntMult                   13749      0.17%     76.02% # Class of executed instruction
system.cpu3.op_class::IntDiv                    45057      0.56%     76.58% # Class of executed instruction
system.cpu3.op_class::FloatAdd                   1368      0.02%     76.60% # Class of executed instruction
system.cpu3.op_class::FloatCmp                      0      0.00%     76.60% # Class of executed instruction
system.cpu3.op_class::FloatCvt                      0      0.00%     76.60% # Class of executed instruction
system.cpu3.op_class::FloatMult                     0      0.00%     76.60% # Class of executed instruction
system.cpu3.op_class::FloatDiv                      0      0.00%     76.60% # Class of executed instruction
system.cpu3.op_class::FloatSqrt                     0      0.00%     76.60% # Class of executed instruction
system.cpu3.op_class::SimdAdd                       0      0.00%     76.60% # Class of executed instruction
system.cpu3.op_class::SimdAddAcc                    0      0.00%     76.60% # Class of executed instruction
system.cpu3.op_class::SimdAlu                       0      0.00%     76.60% # Class of executed instruction
system.cpu3.op_class::SimdCmp                       0      0.00%     76.60% # Class of executed instruction
system.cpu3.op_class::SimdCvt                       0      0.00%     76.60% # Class of executed instruction
system.cpu3.op_class::SimdMisc                      0      0.00%     76.60% # Class of executed instruction
system.cpu3.op_class::SimdMult                      0      0.00%     76.60% # Class of executed instruction
system.cpu3.op_class::SimdMultAcc                   0      0.00%     76.60% # Class of executed instruction
system.cpu3.op_class::SimdShift                     0      0.00%     76.60% # Class of executed instruction
system.cpu3.op_class::SimdShiftAcc                  0      0.00%     76.60% # Class of executed instruction
system.cpu3.op_class::SimdSqrt                      0      0.00%     76.60% # Class of executed instruction
system.cpu3.op_class::SimdFloatAdd                  0      0.00%     76.60% # Class of executed instruction
system.cpu3.op_class::SimdFloatAlu                  0      0.00%     76.60% # Class of executed instruction
system.cpu3.op_class::SimdFloatCmp                  0      0.00%     76.60% # Class of executed instruction
system.cpu3.op_class::SimdFloatCvt                  0      0.00%     76.60% # Class of executed instruction
system.cpu3.op_class::SimdFloatDiv                  0      0.00%     76.60% # Class of executed instruction
system.cpu3.op_class::SimdFloatMisc                 0      0.00%     76.60% # Class of executed instruction
system.cpu3.op_class::SimdFloatMult                 0      0.00%     76.60% # Class of executed instruction
system.cpu3.op_class::SimdFloatMultAcc              0      0.00%     76.60% # Class of executed instruction
system.cpu3.op_class::SimdFloatSqrt                 0      0.00%     76.60% # Class of executed instruction
system.cpu3.op_class::MemRead                 1166952     14.60%     91.19% # Class of executed instruction
system.cpu3.op_class::MemWrite                 703949      8.81%    100.00% # Class of executed instruction
system.cpu3.op_class::IprAccess                     0      0.00%    100.00% # Class of executed instruction
system.cpu3.op_class::InstPrefetch                  0      0.00%    100.00% # Class of executed instruction
system.cpu3.op_class::total                   7994610                       # Class of executed instruction
system.iobus.trans_dist::ReadReq                  199                       # Transaction distribution
system.iobus.trans_dist::ReadResp                 199                       # Transaction distribution
system.iobus.trans_dist::WriteReq                4195                       # Transaction distribution
system.iobus.trans_dist::WriteResp               4195                       # Transaction distribution
system.iobus.trans_dist::MessageReq                19                       # Transaction distribution
system.iobus.trans_dist::MessageResp               19                       # Transaction distribution
system.iobus.pkt_count_system.pc.south_bridge.io_apic.int_master::system.ruby.l1_cntrl0.sequencer.pio-slave-port            4                       # Packet count per connected master and slave (bytes)
system.iobus.pkt_count_system.pc.south_bridge.io_apic.int_master::system.ruby.l1_cntrl1.sequencer.pio-slave-port            6                       # Packet count per connected master and slave (bytes)
system.iobus.pkt_count_system.pc.south_bridge.io_apic.int_master::system.ruby.l1_cntrl2.sequencer.pio-slave-port            6                       # Packet count per connected master and slave (bytes)
system.iobus.pkt_count_system.pc.south_bridge.io_apic.int_master::system.ruby.l1_cntrl3.sequencer.pio-slave-port            4                       # Packet count per connected master and slave (bytes)
system.iobus.pkt_count_system.pc.south_bridge.io_apic.int_master::total           20                       # Packet count per connected master and slave (bytes)
system.iobus.pkt_count_system.ruby.l1_cntrl0.sequencer.mem-master-port::system.pc.south_bridge.ide.pio           34                       # Packet count per connected master and slave (bytes)
system.iobus.pkt_count_system.ruby.l1_cntrl0.sequencer.mem-master-port::system.pc.south_bridge.io_apic.pio           16                       # Packet count per connected master and slave (bytes)
system.iobus.pkt_count_system.ruby.l1_cntrl0.sequencer.mem-master-port::system.ruby.l1_cntrl0.sequencer.pio-slave-port         2042                       # Packet count per connected master and slave (bytes)
system.iobus.pkt_count_system.ruby.l1_cntrl0.sequencer.mem-master-port::system.ruby.l1_cntrl1.sequencer.pio-slave-port            2                       # Packet count per connected master and slave (bytes)
system.iobus.pkt_count_system.ruby.l1_cntrl0.sequencer.mem-master-port::total         2094                       # Packet count per connected master and slave (bytes)
system.iobus.pkt_count_system.ruby.l1_cntrl1.sequencer.mem-master-port::system.pc.south_bridge.ide.pio           46                       # Packet count per connected master and slave (bytes)
system.iobus.pkt_count_system.ruby.l1_cntrl1.sequencer.mem-master-port::system.pc.south_bridge.io_apic.pio           14                       # Packet count per connected master and slave (bytes)
system.iobus.pkt_count_system.ruby.l1_cntrl1.sequencer.mem-master-port::system.pc.com_1.pio          254                       # Packet count per connected master and slave (bytes)
system.iobus.pkt_count_system.ruby.l1_cntrl1.sequencer.mem-master-port::system.ruby.l1_cntrl0.sequencer.pio-slave-port            2                       # Packet count per connected master and slave (bytes)
system.iobus.pkt_count_system.ruby.l1_cntrl1.sequencer.mem-master-port::system.ruby.l1_cntrl1.sequencer.pio-slave-port         2062                       # Packet count per connected master and slave (bytes)
system.iobus.pkt_count_system.ruby.l1_cntrl1.sequencer.mem-master-port::system.ruby.l1_cntrl2.sequencer.pio-slave-port            6                       # Packet count per connected master and slave (bytes)
system.iobus.pkt_count_system.ruby.l1_cntrl1.sequencer.mem-master-port::total         2384                       # Packet count per connected master and slave (bytes)
system.iobus.pkt_count_system.ruby.l1_cntrl2.sequencer.mem-master-port::system.pc.south_bridge.ide.pio           12                       # Packet count per connected master and slave (bytes)
system.iobus.pkt_count_system.ruby.l1_cntrl2.sequencer.mem-master-port::system.pc.south_bridge.io_apic.pio           16                       # Packet count per connected master and slave (bytes)
system.iobus.pkt_count_system.ruby.l1_cntrl2.sequencer.mem-master-port::system.pc.com_1.pio            4                       # Packet count per connected master and slave (bytes)
system.iobus.pkt_count_system.ruby.l1_cntrl2.sequencer.mem-master-port::system.ruby.l1_cntrl2.sequencer.pio-slave-port         2048                       # Packet count per connected master and slave (bytes)
system.iobus.pkt_count_system.ruby.l1_cntrl2.sequencer.mem-master-port::system.ruby.l1_cntrl3.sequencer.pio-slave-port            2                       # Packet count per connected master and slave (bytes)
system.iobus.pkt_count_system.ruby.l1_cntrl2.sequencer.mem-master-port::total         2082                       # Packet count per connected master and slave (bytes)
system.iobus.pkt_count_system.ruby.l1_cntrl3.sequencer.mem-master-port::system.pc.south_bridge.io_apic.pio           14                       # Packet count per connected master and slave (bytes)
system.iobus.pkt_count_system.ruby.l1_cntrl3.sequencer.mem-master-port::system.pc.com_1.pio          174                       # Packet count per connected master and slave (bytes)
system.iobus.pkt_count_system.ruby.l1_cntrl3.sequencer.mem-master-port::system.ruby.l1_cntrl0.sequencer.pio-slave-port            2                       # Packet count per connected master and slave (bytes)
system.iobus.pkt_count_system.ruby.l1_cntrl3.sequencer.mem-master-port::system.ruby.l1_cntrl1.sequencer.pio-slave-port            2                       # Packet count per connected master and slave (bytes)
system.iobus.pkt_count_system.ruby.l1_cntrl3.sequencer.mem-master-port::system.ruby.l1_cntrl2.sequencer.pio-slave-port            2                       # Packet count per connected master and slave (bytes)
system.iobus.pkt_count_system.ruby.l1_cntrl3.sequencer.mem-master-port::system.ruby.l1_cntrl3.sequencer.pio-slave-port         2052                       # Packet count per connected master and slave (bytes)
system.iobus.pkt_count_system.ruby.l1_cntrl3.sequencer.mem-master-port::total         2246                       # Packet count per connected master and slave (bytes)
system.iobus.pkt_count::total                    8826                       # Packet count per connected master and slave (bytes)
system.iobus.pkt_size_system.pc.south_bridge.io_apic.int_master::system.ruby.l1_cntrl0.sequencer.pio-slave-port            8                       # Cumulative packet size per connected master and slave (bytes)
system.iobus.pkt_size_system.pc.south_bridge.io_apic.int_master::system.ruby.l1_cntrl1.sequencer.pio-slave-port           12                       # Cumulative packet size per connected master and slave (bytes)
system.iobus.pkt_size_system.pc.south_bridge.io_apic.int_master::system.ruby.l1_cntrl2.sequencer.pio-slave-port           12                       # Cumulative packet size per connected master and slave (bytes)
system.iobus.pkt_size_system.pc.south_bridge.io_apic.int_master::system.ruby.l1_cntrl3.sequencer.pio-slave-port            8                       # Cumulative packet size per connected master and slave (bytes)
system.iobus.pkt_size_system.pc.south_bridge.io_apic.int_master::total           40                       # Cumulative packet size per connected master and slave (bytes)
system.iobus.pkt_size_system.ruby.l1_cntrl0.sequencer.mem-master-port::system.pc.south_bridge.ide.pio           20                       # Cumulative packet size per connected master and slave (bytes)
system.iobus.pkt_size_system.ruby.l1_cntrl0.sequencer.mem-master-port::system.pc.south_bridge.io_apic.pio           32                       # Cumulative packet size per connected master and slave (bytes)
system.iobus.pkt_size_system.ruby.l1_cntrl0.sequencer.mem-master-port::system.ruby.l1_cntrl0.sequencer.pio-slave-port         4084                       # Cumulative packet size per connected master and slave (bytes)
system.iobus.pkt_size_system.ruby.l1_cntrl0.sequencer.mem-master-port::system.ruby.l1_cntrl1.sequencer.pio-slave-port            4                       # Cumulative packet size per connected master and slave (bytes)
system.iobus.pkt_size_system.ruby.l1_cntrl0.sequencer.mem-master-port::total         4140                       # Cumulative packet size per connected master and slave (bytes)
system.iobus.pkt_size_system.ruby.l1_cntrl1.sequencer.mem-master-port::system.pc.south_bridge.ide.pio           26                       # Cumulative packet size per connected master and slave (bytes)
system.iobus.pkt_size_system.ruby.l1_cntrl1.sequencer.mem-master-port::system.pc.south_bridge.io_apic.pio           28                       # Cumulative packet size per connected master and slave (bytes)
system.iobus.pkt_size_system.ruby.l1_cntrl1.sequencer.mem-master-port::system.pc.com_1.pio          127                       # Cumulative packet size per connected master and slave (bytes)
system.iobus.pkt_size_system.ruby.l1_cntrl1.sequencer.mem-master-port::system.ruby.l1_cntrl0.sequencer.pio-slave-port            4                       # Cumulative packet size per connected master and slave (bytes)
system.iobus.pkt_size_system.ruby.l1_cntrl1.sequencer.mem-master-port::system.ruby.l1_cntrl1.sequencer.pio-slave-port         4124                       # Cumulative packet size per connected master and slave (bytes)
system.iobus.pkt_size_system.ruby.l1_cntrl1.sequencer.mem-master-port::system.ruby.l1_cntrl2.sequencer.pio-slave-port           12                       # Cumulative packet size per connected master and slave (bytes)
system.iobus.pkt_size_system.ruby.l1_cntrl1.sequencer.mem-master-port::total         4321                       # Cumulative packet size per connected master and slave (bytes)
system.iobus.pkt_size_system.ruby.l1_cntrl2.sequencer.mem-master-port::system.pc.south_bridge.ide.pio            6                       # Cumulative packet size per connected master and slave (bytes)
system.iobus.pkt_size_system.ruby.l1_cntrl2.sequencer.mem-master-port::system.pc.south_bridge.io_apic.pio           32                       # Cumulative packet size per connected master and slave (bytes)
system.iobus.pkt_size_system.ruby.l1_cntrl2.sequencer.mem-master-port::system.pc.com_1.pio            2                       # Cumulative packet size per connected master and slave (bytes)
system.iobus.pkt_size_system.ruby.l1_cntrl2.sequencer.mem-master-port::system.ruby.l1_cntrl2.sequencer.pio-slave-port         4096                       # Cumulative packet size per connected master and slave (bytes)
system.iobus.pkt_size_system.ruby.l1_cntrl2.sequencer.mem-master-port::system.ruby.l1_cntrl3.sequencer.pio-slave-port            4                       # Cumulative packet size per connected master and slave (bytes)
system.iobus.pkt_size_system.ruby.l1_cntrl2.sequencer.mem-master-port::total         4140                       # Cumulative packet size per connected master and slave (bytes)
system.iobus.pkt_size_system.ruby.l1_cntrl3.sequencer.mem-master-port::system.pc.south_bridge.io_apic.pio           28                       # Cumulative packet size per connected master and slave (bytes)
system.iobus.pkt_size_system.ruby.l1_cntrl3.sequencer.mem-master-port::system.pc.com_1.pio           87                       # Cumulative packet size per connected master and slave (bytes)
system.iobus.pkt_size_system.ruby.l1_cntrl3.sequencer.mem-master-port::system.ruby.l1_cntrl0.sequencer.pio-slave-port            4                       # Cumulative packet size per connected master and slave (bytes)
system.iobus.pkt_size_system.ruby.l1_cntrl3.sequencer.mem-master-port::system.ruby.l1_cntrl1.sequencer.pio-slave-port            4                       # Cumulative packet size per connected master and slave (bytes)
system.iobus.pkt_size_system.ruby.l1_cntrl3.sequencer.mem-master-port::system.ruby.l1_cntrl2.sequencer.pio-slave-port            4                       # Cumulative packet size per connected master and slave (bytes)
system.iobus.pkt_size_system.ruby.l1_cntrl3.sequencer.mem-master-port::system.ruby.l1_cntrl3.sequencer.pio-slave-port         4104                       # Cumulative packet size per connected master and slave (bytes)
system.iobus.pkt_size_system.ruby.l1_cntrl3.sequencer.mem-master-port::total         4231                       # Cumulative packet size per connected master and slave (bytes)
system.iobus.pkt_size::total                    16872                       # Cumulative packet size per connected master and slave (bytes)
system.iobus.reqLayer2.occupancy                84500                       # Layer occupancy (ticks)
system.iobus.reqLayer2.utilization                0.0                       # Layer utilization (%)
system.iobus.reqLayer8.occupancy                52495                       # Layer occupancy (ticks)
system.iobus.reqLayer8.utilization                0.0                       # Layer utilization (%)
system.iobus.reqLayer12.occupancy              275000                       # Layer occupancy (ticks)
system.iobus.reqLayer12.utilization               0.0                       # Layer utilization (%)
system.iobus.reqLayer17.occupancy             2541999                       # Layer occupancy (ticks)
system.iobus.reqLayer17.utilization               0.0                       # Layer utilization (%)
system.iobus.reqLayer18.occupancy             2833486                       # Layer occupancy (ticks)
system.iobus.reqLayer18.utilization               0.0                       # Layer utilization (%)
system.iobus.reqLayer19.occupancy             2405999                       # Layer occupancy (ticks)
system.iobus.reqLayer19.utilization               0.0                       # Layer utilization (%)
system.iobus.reqLayer20.occupancy             2551998                       # Layer occupancy (ticks)
system.iobus.reqLayer20.utilization               0.0                       # Layer utilization (%)
system.iobus.respLayer0.occupancy               14498                       # Layer occupancy (ticks)
system.iobus.respLayer0.utilization               0.0                       # Layer utilization (%)
system.iobus.respLayer2.occupancy             1566500                       # Layer occupancy (ticks)
system.iobus.respLayer2.utilization               0.0                       # Layer utilization (%)
system.iobus.respLayer4.occupancy             1818500                       # Layer occupancy (ticks)
system.iobus.respLayer4.utilization               0.0                       # Layer utilization (%)
system.iobus.respLayer6.occupancy             1562000                       # Layer occupancy (ticks)
system.iobus.respLayer6.utilization               0.0                       # Layer utilization (%)
system.iobus.respLayer8.occupancy             1707000                       # Layer occupancy (ticks)
system.iobus.respLayer8.utilization               0.0                       # Layer utilization (%)
system.pc.south_bridge.ide.disks.dma_read_full_pages            1                       # Number of full page size DMA reads (not PRD).
system.pc.south_bridge.ide.disks.dma_read_bytes         4096                       # Number of bytes transfered via DMA reads (not PRD).
system.pc.south_bridge.ide.disks.dma_read_txs            1                       # Number of DMA read transactions (not PRD).
system.pc.south_bridge.ide.disks.dma_write_full_pages           24                       # Number of full page size DMA writes.
system.pc.south_bridge.ide.disks.dma_write_bytes        98304                       # Number of bytes transfered via DMA writes.
system.pc.south_bridge.ide.disks.dma_write_txs           24                       # Number of DMA write transactions.
system.ruby.clk_domain.clock                      500                       # Clock period in ticks
[...]
system.ruby.LD.Directory.miss_type_mach_latency_hist_seqr |     4950166     76.63%     76.63% |     1027121     15.90%     92.53% |      347456      5.38%     97.91% |       66839      1.03%     98.95% |       50941      0.79%     99.73% |       13464      0.21%     99.94% |        1111      0.02%     99.96% |        2456      0.04%    100.00% |         123      0.00%    100.00% |           0      0.00%    100.00%
system.ruby.LD.Directory.miss_type_mach_latency_hist_seqr::total      6459677                      
system.ruby.ST.L1Cache.miss_type_mach_latency_hist_seqr::bucket_size            8                      
system.ruby.ST.L1Cache.miss_type_mach_latency_hist_seqr::max_bucket           79                      
system.ruby.ST.L1Cache.miss_type_mach_latency_hist_seqr::samples         7451                      
system.ruby.ST.L1Cache.miss_type_mach_latency_hist_seqr::mean    46.513622                      
system.ruby.ST.L1Cache.miss_type_mach_latency_hist_seqr::gmean    46.471527                      
system.ruby.ST.L1Cache.miss_type_mach_latency_hist_seqr::stdev     2.000583                      
system.ruby.ST.L1Cache.miss_type_mach_latency_hist_seqr |           0      0.00%      0.00% |           0      0.00%      0.00% |           0      0.00%      0.00% |           0      0.00%      0.00% |           0      0.00%      0.00% |        4678     62.78%     62.78% |        2766     37.12%     99.91% |           7      0.09%    100.00% |           0      0.00%    100.00% |           0      0.00%    100.00%
system.ruby.ST.L1Cache.miss_type_mach_latency_hist_seqr::total         7451                      
system.ruby.ST.Directory.miss_type_mach_latency_hist_seqr::bucket_size          128                      
system.ruby.ST.Directory.miss_type_mach_latency_hist_seqr::max_bucket         1279                      
system.ruby.ST.Directory.miss_type_mach_latency_hist_seqr::samples      1077758                      
system.ruby.ST.Directory.miss_type_mach_latency_hist_seqr::mean   130.022371                      
system.ruby.ST.Directory.miss_type_mach_latency_hist_seqr::gmean   119.302904                      
system.ruby.ST.Directory.miss_type_mach_latency_hist_seqr::stdev    76.725076                      
system.ruby.ST.Directory.miss_type_mach_latency_hist_seqr |      868276     80.56%     80.56% |      129924     12.06%     92.62% |       61118      5.67%     98.29% |        7131      0.66%     98.95% |        8341      0.77%     99.72% |        2369      0.22%     99.94% |         241      0.02%     99.97% |         334      0.03%    100.00% |          24      0.00%    100.00% |           0      0.00%    100.00%
system.ruby.ST.Directory.miss_type_mach_latency_hist_seqr::total      1077758                      
system.ruby.IFETCH.L1Cache.miss_type_mach_latency_hist_seqr::bucket_size           32                      
system.ruby.IFETCH.L1Cache.miss_type_mach_latency_hist_seqr::max_bucket          319                      
system.ruby.IFETCH.L1Cache.miss_type_mach_latency_hist_seqr::samples      1455289                      
system.ruby.IFETCH.L1Cache.miss_type_mach_latency_hist_seqr::mean    45.630707                      
system.ruby.IFETCH.L1Cache.miss_type_mach_latency_hist_seqr::gmean    45.607492                      
system.ruby.IFETCH.L1Cache.miss_type_mach_latency_hist_seqr::stdev     1.499478                      
system.ruby.IFETCH.L1Cache.miss_type_mach_latency_hist_seqr |           0      0.00%      0.00% |     1455278    100.00%    100.00% |           4      0.00%    100.00% |           4      0.00%    100.00% |           2      0.00%    100.00% |           0      0.00%    100.00% |           0      0.00%    100.00% |           0      0.00%    100.00% |           1      0.00%    100.00% |           0      0.00%    100.00%
system.ruby.IFETCH.L1Cache.miss_type_mach_latency_hist_seqr::total      1455289                      
system.ruby.IFETCH.Directory.miss_type_mach_latency_hist_seqr::bucket_size          128                      
system.ruby.IFETCH.Directory.miss_type_mach_latency_hist_seqr::max_bucket         1279                      
system.ruby.IFETCH.Directory.miss_type_mach_latency_hist_seqr::samples       525924                      
system.ruby.IFETCH.Directory.miss_type_mach_latency_hist_seqr::mean   125.524994                      
system.ruby.IFETCH.Directory.miss_type_mach_latency_hist_seqr::gmean   112.147023                      
system.ruby.IFETCH.Directory.miss_type_mach_latency_hist_seqr::stdev    77.116278                      
system.ruby.IFETCH.Directory.miss_type_mach_latency_hist_seqr |      422823     80.40%     80.40% |       70378     13.38%     93.78% |       23824      4.53%     98.31% |        3786      0.72%     99.03% |        3750      0.71%     99.74% |        1074      0.20%     99.95% |          97      0.02%     99.96% |         182      0.03%    100.00% |          10      0.00%    100.00% |           0      0.00%    100.00%
system.ruby.IFETCH.Directory.miss_type_mach_latency_hist_seqr::total       525924                      
system.ruby.RMW_Read.L1Cache.miss_type_mach_latency_hist_seqr::bucket_size            8                      
system.ruby.RMW_Read.L1Cache.miss_type_mach_latency_hist_seqr::max_bucket           79                      
system.ruby.RMW_Read.L1Cache.miss_type_mach_latency_hist_seqr::samples         2930                      
system.ruby.RMW_Read.L1Cache.miss_type_mach_latency_hist_seqr::mean    45.219454                      
system.ruby.RMW_Read.L1Cache.miss_type_mach_latency_hist_seqr::gmean    45.205751                      
system.ruby.RMW_Read.L1Cache.miss_type_mach_latency_hist_seqr::stdev     1.184556                      
system.ruby.RMW_Read.L1Cache.miss_type_mach_latency_hist_seqr |           0      0.00%      0.00% |           0      0.00%      0.00% |           0      0.00%      0.00% |           0      0.00%      0.00% |           0      0.00%      0.00% |        2824     96.38%     96.38% |          96      3.28%     99.66% |          10      0.34%    100.00% |           0      0.00%    100.00% |           0      0.00%    100.00%
system.ruby.RMW_Read.L1Cache.miss_type_mach_latency_hist_seqr::total         2930                      
system.ruby.RMW_Read.Directory.miss_type_mach_latency_hist_seqr::bucket_size          128                      
system.ruby.RMW_Read.Directory.miss_type_mach_latency_hist_seqr::max_bucket         1279                      
system.ruby.RMW_Read.Directory.miss_type_mach_latency_hist_seqr::samples        33498                      
system.ruby.RMW_Read.Directory.miss_type_mach_latency_hist_seqr::mean   145.644218                      
system.ruby.RMW_Read.Directory.miss_type_mach_latency_hist_seqr::gmean   132.789945                      
system.ruby.RMW_Read.Directory.miss_type_mach_latency_hist_seqr::stdev    82.557919                      
system.ruby.RMW_Read.Directory.miss_type_mach_latency_hist_seqr |       22497     67.16%     67.16% |        7865     23.48%     90.64% |        2383      7.11%     97.75% |         409      1.22%     98.97% |         236      0.70%     99.68% |          74      0.22%     99.90% |          25      0.07%     99.97% |           9      0.03%    100.00% |           0      0.00%    100.00% |           0      0.00%    100.00%
system.ruby.RMW_Read.Directory.miss_type_mach_latency_hist_seqr::total        33498                      
system.ruby.Locked_RMW_Read.L1Cache.miss_type_mach_latency_hist_seqr::bucket_size            8                      
system.ruby.Locked_RMW_Read.L1Cache.miss_type_mach_latency_hist_seqr::max_bucket           79                      
system.ruby.Locked_RMW_Read.L1Cache.miss_type_mach_latency_hist_seqr::samples        12167                      
system.ruby.Locked_RMW_Read.L1Cache.miss_type_mach_latency_hist_seqr::mean    45.735925                      
system.ruby.Locked_RMW_Read.L1Cache.miss_type_mach_latency_hist_seqr::gmean    45.710655                      
system.ruby.Locked_RMW_Read.L1Cache.miss_type_mach_latency_hist_seqr::stdev     1.548188                      
system.ruby.Locked_RMW_Read.L1Cache.miss_type_mach_latency_hist_seqr |           0      0.00%      0.00% |           0      0.00%      0.00% |           0      0.00%      0.00% |           0      0.00%      0.00% |           0      0.00%      0.00% |        9948     81.76%     81.76% |        2219     18.24%    100.00% |           0      0.00%    100.00% |           0      0.00%    100.00% |           0      0.00%    100.00%
system.ruby.Locked_RMW_Read.L1Cache.miss_type_mach_latency_hist_seqr::total        12167                      
system.ruby.Locked_RMW_Read.Directory.miss_type_mach_latency_hist_seqr::bucket_size          128                      
system.ruby.Locked_RMW_Read.Directory.miss_type_mach_latency_hist_seqr::max_bucket         1279                      
system.ruby.Locked_RMW_Read.Directory.miss_type_mach_latency_hist_seqr::samples        13191                      
system.ruby.Locked_RMW_Read.Directory.miss_type_mach_latency_hist_seqr::mean   134.816845                      
system.ruby.Locked_RMW_Read.Directory.miss_type_mach_latency_hist_seqr::gmean   122.997593                      
system.ruby.Locked_RMW_Read.Directory.miss_type_mach_latency_hist_seqr::stdev    81.031037                      
system.ruby.Locked_RMW_Read.Directory.miss_type_mach_latency_hist_seqr |       10358     78.52%     78.52% |        1820     13.80%     92.32% |         745      5.65%     97.97% |         104      0.79%     98.76% |         130      0.99%     99.74% |          21      0.16%     99.90% |           4      0.03%     99.93% |           9      0.07%    100.00% |           0      0.00%    100.00% |           0      0.00%    100.00%
system.ruby.Locked_RMW_Read.Directory.miss_type_mach_latency_hist_seqr::total        13191                      
system.ruby.Directory_Controller.GETX         5112041      0.00%      0.00%
system.ruby.Directory_Controller.PUTX         4132095      0.00%      0.00%
system.ruby.Directory_Controller.PUTX_NotOwner            2      0.00%      0.00%
system.ruby.Directory_Controller.DMA_READ           91      0.00%      0.00%
system.ruby.Directory_Controller.DMA_WRITE         1664      0.00%      0.00%
system.ruby.Directory_Controller.Memory_Data      4132331      0.00%      0.00%
system.ruby.Directory_Controller.Memory_Ack      4133759      0.00%      0.00%
system.ruby.Directory_Controller.I.GETX       4132247      0.00%      0.00%
system.ruby.Directory_Controller.I.DMA_READ           84      0.00%      0.00%
system.ruby.Directory_Controller.I.DMA_WRITE         1664      0.00%      0.00%
system.ruby.Directory_Controller.M.GETX        979680      0.00%      0.00%
system.ruby.Directory_Controller.M.PUTX       4132088      0.00%      0.00%
system.ruby.Directory_Controller.M.PUTX_NotOwner            2      0.00%      0.00%
system.ruby.Directory_Controller.M.DMA_READ            7      0.00%      0.00%
system.ruby.Directory_Controller.M_DRD.PUTX            7      0.00%      0.00%
system.ruby.Directory_Controller.M_DRDI.Memory_Ack            7      0.00%      0.00%
system.ruby.Directory_Controller.IM.GETX          114      0.00%      0.00%
system.ruby.Directory_Controller.IM.Memory_Data      4132247      0.00%      0.00%
system.ruby.Directory_Controller.MI.Memory_Ack      4132088      0.00%      0.00%
system.ruby.Directory_Controller.ID.Memory_Data           84      0.00%      0.00%
system.ruby.Directory_Controller.ID_W.Memory_Ack         1664      0.00%      0.00%
system.ruby.DMA_Controller.ReadRequest   |          91    100.00%    100.00% |           0      0.00%    100.00%
system.ruby.DMA_Controller.ReadRequest::total           91                      
system.ruby.DMA_Controller.WriteRequest  |        1664    100.00%    100.00% |           0      0.00%    100.00%
system.ruby.DMA_Controller.WriteRequest::total         1664                      
system.ruby.DMA_Controller.Data          |          91    100.00%    100.00% |           0      0.00%    100.00%
system.ruby.DMA_Controller.Data::total             91                      
system.ruby.DMA_Controller.Ack           |        1664    100.00%    100.00% |           0      0.00%    100.00%
system.ruby.DMA_Controller.Ack::total            1664                      
system.ruby.DMA_Controller.READY.ReadRequest |          91    100.00%    100.00% |           0      0.00%    100.00%
system.ruby.DMA_Controller.READY.ReadRequest::total           91                      
system.ruby.DMA_Controller.READY.WriteRequest |        1664    100.00%    100.00% |           0      0.00%    100.00%
system.ruby.DMA_Controller.READY.WriteRequest::total         1664                      
system.ruby.DMA_Controller.BUSY_RD.Data  |          91    100.00%    100.00% |           0      0.00%    100.00%
system.ruby.DMA_Controller.BUSY_RD.Data::total           91                      
system.ruby.DMA_Controller.BUSY_WR.Ack   |        1664    100.00%    100.00% |           0      0.00%    100.00%
system.ruby.DMA_Controller.BUSY_WR.Ack::total         1664                      
system.ruby.L1Cache_Controller.Load      |     1498998      0.41%      0.41% |   360302705     98.71%     99.13% |     1266191      0.35%     99.47% |     1926054      0.53%    100.00%
system.ruby.L1Cache_Controller.Load::total    364993948                      
system.ruby.L1Cache_Controller.Ifetch    |     7158417      0.00%      0.00% |18446744072789456896    100.00%    100.00% |     6055691      0.00%    100.00% |    10053908      0.00%    100.00%
system.ruby.L1Cache_Controller.Ifetch::total 18446744072812724224                      
system.ruby.L1Cache_Controller.Store     |     1153140      1.96%      1.96% |    55330875     94.00%     95.96% |      930594      1.58%     97.55% |     1444968      2.45%    100.00%
system.ruby.L1Cache_Controller.Store::total     58859577                      
system.ruby.L1Cache_Controller.Data      |      322209      6.30%      6.30% |     4104108     80.28%     86.59% |      314544      6.15%     92.74% |      371066      7.26%    100.00%
system.ruby.L1Cache_Controller.Data::total      5111927                      
system.ruby.L1Cache_Controller.Fwd_GETX  |      290647     29.67%     29.67% |      139796     14.27%     43.94% |      270033     27.56%     71.50% |      279204     28.50%    100.00%
system.ruby.L1Cache_Controller.Fwd_GETX::total       979680                      
system.ruby.L1Cache_Controller.Inv       |           4     28.57%     28.57% |           6     42.86%     71.43% |           2     14.29%     85.71% |           2     14.29%    100.00%
system.ruby.L1Cache_Controller.Inv::total           14                      
system.ruby.L1Cache_Controller.Replacement |       38171      0.90%      0.90% |     4054771     95.51%     96.41% |       52466      1.24%     97.65% |       99825      2.35%    100.00%
system.ruby.L1Cache_Controller.Replacement::total      4245233                      
system.ruby.L1Cache_Controller.Writeback_Ack |       31428      0.76%      0.76% |     3963720     95.93%     96.69% |       44785      1.08%     97.77% |       92162      2.23%    100.00%
system.ruby.L1Cache_Controller.Writeback_Ack::total      4132095                      
system.ruby.L1Cache_Controller.Writeback_Nack |           0      0.00%      0.00% |           2    100.00%    100.00% |           0      0.00%    100.00% |           0      0.00%    100.00%
system.ruby.L1Cache_Controller.Writeback_Nack::total            2                      
system.ruby.L1Cache_Controller.I.Load    |       69250      2.00%      2.00% |     3213048     92.94%     94.95% |       74456      2.15%     97.10% |      100246      2.90%    100.00%
system.ruby.L1Cache_Controller.I.Load::total      3457000                      
system.ruby.L1Cache_Controller.I.Ifetch  |      239042     22.52%     22.52% |      345924     32.59%     55.11% |      229037     21.58%     76.69% |      247431     23.31%    100.00%
system.ruby.L1Cache_Controller.I.Ifetch::total      1061434                      
system.ruby.L1Cache_Controller.I.Store   |       13917      2.34%      2.34% |      545136     91.85%     94.20% |       11051      1.86%     96.06% |       23389      3.94%    100.00%
system.ruby.L1Cache_Controller.I.Store::total       593493                      
system.ruby.L1Cache_Controller.I.Replacement |        6745      5.96%      5.96% |       91052     80.48%     86.44% |        7682      6.79%     93.23% |        7664      6.77%    100.00%
system.ruby.L1Cache_Controller.I.Replacement::total       113143                      
system.ruby.L1Cache_Controller.II.Writeback_Nack |           0      0.00%      0.00% |           2    100.00%    100.00% |           0      0.00%    100.00% |           0      0.00%    100.00%
system.ruby.L1Cache_Controller.II.Writeback_Nack::total            2                      
system.ruby.L1Cache_Controller.M.Load    |     1429748      0.40%      0.40% |   357089657     98.77%     99.17% |     1191735      0.33%     99.49% |     1825808      0.51%    100.00%
system.ruby.L1Cache_Controller.M.Load::total    361536948                      
system.ruby.L1Cache_Controller.M.Ifetch  |     6919375      0.00%      0.00% |18446744072789110784    100.00%    100.00% |     5826654      0.00%    100.00% |     9806477      0.00%    100.00%
system.ruby.L1Cache_Controller.M.Ifetch::total 18446744072811663360                      
system.ruby.L1Cache_Controller.M.Store   |     1139223      1.96%      1.96% |    54785739     94.03%     95.98% |      919543      1.58%     97.56% |     1421579      2.44%    100.00%
system.ruby.L1Cache_Controller.M.Store::total     58266084                      
system.ruby.L1Cache_Controller.M.Fwd_GETX |      290647     29.67%     29.67% |      139794     14.27%     43.94% |      270033     27.56%     71.50% |      279204     28.50%    100.00%
system.ruby.L1Cache_Controller.M.Fwd_GETX::total       979678                      
system.ruby.L1Cache_Controller.M.Inv     |           2     28.57%     28.57% |           3     42.86%     71.43% |           1     14.29%     85.71% |           1     14.29%    100.00%
system.ruby.L1Cache_Controller.M.Inv::total            7                      
system.ruby.L1Cache_Controller.M.Replacement |       31426      0.76%      0.76% |     3963719     95.93%     96.69% |       44784      1.08%     97.77% |       92161      2.23%    100.00%
system.ruby.L1Cache_Controller.M.Replacement::total      4132090                      
system.ruby.L1Cache_Controller.MI.Fwd_GETX |           0      0.00%      0.00% |           2    100.00%    100.00% |           0      0.00%    100.00% |           0      0.00%    100.00%
system.ruby.L1Cache_Controller.MI.Fwd_GETX::total            2                      
system.ruby.L1Cache_Controller.MI.Inv    |           2     28.57%     28.57% |           3     42.86%     71.43% |           1     14.29%     85.71% |           1     14.29%    100.00%
system.ruby.L1Cache_Controller.MI.Inv::total            7                      
system.ruby.L1Cache_Controller.MI.Writeback_Ack |       31428      0.76%      0.76% |     3963720     95.93%     96.69% |       44785      1.08%     97.77% |       92162      2.23%    100.00%
system.ruby.L1Cache_Controller.MI.Writeback_Ack::total      4132095                      
system.ruby.L1Cache_Controller.IS.Data   |      308292      6.82%      6.82% |     3558972     78.77%     85.59% |      303493      6.72%     92.31% |      347677      7.69%    100.00%
system.ruby.L1Cache_Controller.IS.Data::total      4518434                      
system.ruby.L1Cache_Controller.IM.Data   |       13917      2.34%      2.34% |      545136     91.85%     94.20% |       11051      1.86%     96.06% |       23389      3.94%    100.00%
system.ruby.L1Cache_Controller.IM.Data::total       593493                      

---------- End Simulation Statistics   ----------
