Redirecting stdout to /root/anthony/lelec2990-sim2/splash2x.raytrace/X86_MOESI_CMP_directory/l2_size/1MB/stdout.txt
Redirecting stderr to /root/anthony/lelec2990-sim2/splash2x.raytrace/X86_MOESI_CMP_directory/l2_size/1MB/stderr.txt
gem5 Simulator System.  http://gem5.org
gem5 is copyrighted software; use the --copyright option for details.

gem5 compiled Jun  1 2016 12:35:26
gem5 started Jun  3 2016 12:42:23
gem5 executing on yunaska.info.ucl.ac.be, pid 1744363
command line: /root/anthony/gem5/build/X86_MOESI_CMP_directory/gem5.opt --outdir=/root/anthony/lelec2990-sim2/splash2x.raytrace/X86_MOESI_CMP_directory/l2_size/1MB -e --stderr-file=/root/anthony/lelec2990-sim2/splash2x.raytrace/X86_MOESI_CMP_directory/l2_size/1MB/stderr.txt -r --stdout-file=/root/anthony/lelec2990-sim2/splash2x.raytrace/X86_MOESI_CMP_directory/l2_size/1MB/stdout.txt /root/anthony/gem5/configs/example/fs.py --mem-size 1GB --script /root/anthony/lelec2990-sim2/my_sim_script --num-cpus 4 --ruby -r 1 --restore-with-cpu timing --l2_size 1MB

Global frequency set at 1000000000000 ticks per second
info: kernel located at: /root/anthony/debian/binaries/vmlinux
      0: rtc: Real-time clock set to Sun Jan  1 00:00:00 2012
**** REAL SIMULATION ****
info: Entering event queue @ 53146672429500.  Starting simulation...
Exiting @ tick 56150551744501 because m5_exit instruction encountered
