
---------- Begin Simulation Statistics ----------
sim_seconds                                  0.461774                       # Number of seconds simulated
sim_ticks                                461774288500                       # Number of ticks simulated
final_tick                               52368877183501                       # Number of ticks from beginning of simulation (restored from checkpoints and never reset)
sim_freq                                 1000000000000                       # Frequency of simulated ticks
host_inst_rate                                 143005                       # Simulator instruction rate (inst/s)
host_op_rate                                   258089                       # Simulator op (including micro ops) rate (op/s)
host_tick_rate                              245659498                       # Simulator tick rate (ticks/s)
host_mem_usage                                1812256                       # Number of bytes of host memory used
host_seconds                                  1879.73                       # Real time elapsed on the host
sim_insts                                   268812087                       # Number of instructions simulated
sim_ops                                     485138342                       # Number of ops (including micro ops) simulated
system.voltage_domain.voltage                       1                       # Voltage in Volts
system.clk_domain.clock                          1000                       # Clock period in ticks
system.mem_ctrls.bytes_read::ruby.dir_cntrl0       451328                       # Number of bytes read from this memory
system.mem_ctrls.bytes_read::total             451328                       # Number of bytes read from this memory
system.mem_ctrls.bytes_written::ruby.dir_cntrl0       164224                       # Number of bytes written to this memory
system.mem_ctrls.bytes_written::total          164224                       # Number of bytes written to this memory
system.mem_ctrls.num_reads::ruby.dir_cntrl0         7052                       # Number of read requests responded to by this memory
system.mem_ctrls.num_reads::total                7052                       # Number of read requests responded to by this memory
system.mem_ctrls.num_writes::ruby.dir_cntrl0         2566                       # Number of write requests responded to by this memory
system.mem_ctrls.num_writes::total               2566                       # Number of write requests responded to by this memory
system.mem_ctrls.bw_read::ruby.dir_cntrl0       977378                       # Total read bandwidth from this memory (bytes/s)
system.mem_ctrls.bw_read::total                977378                       # Total read bandwidth from this memory (bytes/s)
system.mem_ctrls.bw_write::ruby.dir_cntrl0       355637                       # Write bandwidth from this memory (bytes/s)
system.mem_ctrls.bw_write::total               355637                       # Write bandwidth from this memory (bytes/s)
system.mem_ctrls.bw_total::ruby.dir_cntrl0      1333015                       # Total bandwidth to/from this memory (bytes/s)
system.mem_ctrls.bw_total::total              1333015                       # Total bandwidth to/from this memory (bytes/s)
system.mem_ctrls.readReqs                        7052                       # Number of read requests accepted
system.mem_ctrls.writeReqs                       2566                       # Number of write requests accepted
system.mem_ctrls.readBursts                      7052                       # Number of DRAM read bursts, including those serviced by the write queue
system.mem_ctrls.writeBursts                     2566                       # Number of DRAM write bursts, including those merged in the write queue
system.mem_ctrls.bytesReadDRAM                 449728                       # Total number of bytes read from DRAM
system.mem_ctrls.bytesReadWrQ                    1600                       # Total number of bytes read from write queue
system.mem_ctrls.bytesWritten                  164224                       # Total number of bytes written to DRAM
system.mem_ctrls.bytesReadSys                  451328                       # Total read bytes from the system interface side
system.mem_ctrls.bytesWrittenSys               164224                       # Total written bytes from the system interface side
system.mem_ctrls.servicedByWrQ                     25                       # Number of DRAM read bursts serviced by the write queue
system.mem_ctrls.mergedWrBursts                     0                       # Number of DRAM write bursts merged with an existing one
system.mem_ctrls.neitherReadNorWriteReqs            0                       # Number of requests that are neither read nor write
system.mem_ctrls.perBankRdBursts::0               260                       # Per bank write bursts
system.mem_ctrls.perBankRdBursts::1               284                       # Per bank write bursts
system.mem_ctrls.perBankRdBursts::2               434                       # Per bank write bursts
system.mem_ctrls.perBankRdBursts::3               329                       # Per bank write bursts
system.mem_ctrls.perBankRdBursts::4               495                       # Per bank write bursts
system.mem_ctrls.perBankRdBursts::5               601                       # Per bank write bursts
system.mem_ctrls.perBankRdBursts::6               544                       # Per bank write bursts
system.mem_ctrls.perBankRdBursts::7               520                       # Per bank write bursts
system.mem_ctrls.perBankRdBursts::8               277                       # Per bank write bursts
system.mem_ctrls.perBankRdBursts::9               343                       # Per bank write bursts
system.mem_ctrls.perBankRdBursts::10              448                       # Per bank write bursts
system.mem_ctrls.perBankRdBursts::11              599                       # Per bank write bursts
system.mem_ctrls.perBankRdBursts::12              319                       # Per bank write bursts
system.mem_ctrls.perBankRdBursts::13              447                       # Per bank write bursts
system.mem_ctrls.perBankRdBursts::14              711                       # Per bank write bursts
system.mem_ctrls.perBankRdBursts::15              416                       # Per bank write bursts
system.mem_ctrls.perBankWrBursts::0                98                       # Per bank write bursts
system.mem_ctrls.perBankWrBursts::1               195                       # Per bank write bursts
system.mem_ctrls.perBankWrBursts::2               187                       # Per bank write bursts
system.mem_ctrls.perBankWrBursts::3               209                       # Per bank write bursts
system.mem_ctrls.perBankWrBursts::4               227                       # Per bank write bursts
system.mem_ctrls.perBankWrBursts::5               163                       # Per bank write bursts
system.mem_ctrls.perBankWrBursts::6               156                       # Per bank write bursts
system.mem_ctrls.perBankWrBursts::7               204                       # Per bank write bursts
system.mem_ctrls.perBankWrBursts::8               195                       # Per bank write bursts
system.mem_ctrls.perBankWrBursts::9               215                       # Per bank write bursts
system.mem_ctrls.perBankWrBursts::10              197                       # Per bank write bursts
system.mem_ctrls.perBankWrBursts::11              140                       # Per bank write bursts
system.mem_ctrls.perBankWrBursts::12                1                       # Per bank write bursts
system.mem_ctrls.perBankWrBursts::13               35                       # Per bank write bursts
system.mem_ctrls.perBankWrBursts::14              276                       # Per bank write bursts
system.mem_ctrls.perBankWrBursts::15               68                       # Per bank write bursts
system.mem_ctrls.numRdRetry                         0                       # Number of times read queue was full causing retry
system.mem_ctrls.numWrRetry                         0                       # Number of times write queue was full causing retry
system.mem_ctrls.totGap                  461774208000                       # Total gap between requests
system.mem_ctrls.readPktSize::0                     0                       # Read request sizes (log2)
system.mem_ctrls.readPktSize::1                     0                       # Read request sizes (log2)
system.mem_ctrls.readPktSize::2                     0                       # Read request sizes (log2)
system.mem_ctrls.readPktSize::3                     0                       # Read request sizes (log2)
system.mem_ctrls.readPktSize::4                     0                       # Read request sizes (log2)
system.mem_ctrls.readPktSize::5                     0                       # Read request sizes (log2)
system.mem_ctrls.readPktSize::6                  7052                       # Read request sizes (log2)
system.mem_ctrls.writePktSize::0                    0                       # Write request sizes (log2)
system.mem_ctrls.writePktSize::1                    0                       # Write request sizes (log2)
system.mem_ctrls.writePktSize::2                    0                       # Write request sizes (log2)
system.mem_ctrls.writePktSize::3                    0                       # Write request sizes (log2)
system.mem_ctrls.writePktSize::4                    0                       # Write request sizes (log2)
system.mem_ctrls.writePktSize::5                    0                       # Write request sizes (log2)
system.mem_ctrls.writePktSize::6                 2566                       # Write request sizes (log2)
system.mem_ctrls.rdQLenPdf::0                    6843                       # What read queue length does an incoming req see
system.mem_ctrls.rdQLenPdf::1                     184                       # What read queue length does an incoming req see
system.mem_ctrls.rdQLenPdf::2                       0                       # What read queue length does an incoming req see
system.mem_ctrls.rdQLenPdf::3                       0                       # What read queue length does an incoming req see
system.mem_ctrls.rdQLenPdf::4                       0                       # What read queue length does an incoming req see
system.mem_ctrls.rdQLenPdf::5                       0                       # What read queue length does an incoming req see
system.mem_ctrls.rdQLenPdf::6                       0                       # What read queue length does an incoming req see
system.mem_ctrls.rdQLenPdf::7                       0                       # What read queue length does an incoming req see
system.mem_ctrls.rdQLenPdf::8                       0                       # What read queue length does an incoming req see
system.mem_ctrls.rdQLenPdf::9                       0                       # What read queue length does an incoming req see
system.mem_ctrls.rdQLenPdf::10                      0                       # What read queue length does an incoming req see
system.mem_ctrls.rdQLenPdf::11                      0                       # What read queue length does an incoming req see
system.mem_ctrls.rdQLenPdf::12                      0                       # What read queue length does an incoming req see
system.mem_ctrls.rdQLenPdf::13                      0                       # What read queue length does an incoming req see
system.mem_ctrls.rdQLenPdf::14                      0                       # What read queue length does an incoming req see
system.mem_ctrls.rdQLenPdf::15                      0                       # What read queue length does an incoming req see
system.mem_ctrls.rdQLenPdf::16                      0                       # What read queue length does an incoming req see
system.mem_ctrls.rdQLenPdf::17                      0                       # What read queue length does an incoming req see
system.mem_ctrls.rdQLenPdf::18                      0                       # What read queue length does an incoming req see
system.mem_ctrls.rdQLenPdf::19                      0                       # What read queue length does an incoming req see
system.mem_ctrls.rdQLenPdf::20                      0                       # What read queue length does an incoming req see
system.mem_ctrls.rdQLenPdf::21                      0                       # What read queue length does an incoming req see
system.mem_ctrls.rdQLenPdf::22                      0                       # What read queue length does an incoming req see
system.mem_ctrls.rdQLenPdf::23                      0                       # What read queue length does an incoming req see
system.mem_ctrls.rdQLenPdf::24                      0                       # What read queue length does an incoming req see
system.mem_ctrls.rdQLenPdf::25                      0                       # What read queue length does an incoming req see
system.mem_ctrls.rdQLenPdf::26                      0                       # What read queue length does an incoming req see
system.mem_ctrls.rdQLenPdf::27                      0                       # What read queue length does an incoming req see
system.mem_ctrls.rdQLenPdf::28                      0                       # What read queue length does an incoming req see
system.mem_ctrls.rdQLenPdf::29                      0                       # What read queue length does an incoming req see
system.mem_ctrls.rdQLenPdf::30                      0                       # What read queue length does an incoming req see
system.mem_ctrls.rdQLenPdf::31                      0                       # What read queue length does an incoming req see
system.mem_ctrls.wrQLenPdf::0                       0                       # What write queue length does an incoming req see
system.mem_ctrls.wrQLenPdf::1                       0                       # What write queue length does an incoming req see
system.mem_ctrls.wrQLenPdf::2                       0                       # What write queue length does an incoming req see
system.mem_ctrls.wrQLenPdf::3                       0                       # What write queue length does an incoming req see
system.mem_ctrls.wrQLenPdf::4                       0                       # What write queue length does an incoming req see
system.mem_ctrls.wrQLenPdf::5                       0                       # What write queue length does an incoming req see
system.mem_ctrls.wrQLenPdf::6                       0                       # What write queue length does an incoming req see
system.mem_ctrls.wrQLenPdf::7                       0                       # What write queue length does an incoming req see
system.mem_ctrls.wrQLenPdf::8                       0                       # What write queue length does an incoming req see
system.mem_ctrls.wrQLenPdf::9                       0                       # What write queue length does an incoming req see
system.mem_ctrls.wrQLenPdf::10                      0                       # What write queue length does an incoming req see
system.mem_ctrls.wrQLenPdf::11                      0                       # What write queue length does an incoming req see
system.mem_ctrls.wrQLenPdf::12                      0                       # What write queue length does an incoming req see
system.mem_ctrls.wrQLenPdf::13                      0                       # What write queue length does an incoming req see
system.mem_ctrls.wrQLenPdf::14                      0                       # What write queue length does an incoming req see
system.mem_ctrls.wrQLenPdf::15                     84                       # What write queue length does an incoming req see
system.mem_ctrls.wrQLenPdf::16                    116                       # What write queue length does an incoming req see
system.mem_ctrls.wrQLenPdf::17                    138                       # What write queue length does an incoming req see
system.mem_ctrls.wrQLenPdf::18                    155                       # What write queue length does an incoming req see
system.mem_ctrls.wrQLenPdf::19                    143                       # What write queue length does an incoming req see
system.mem_ctrls.wrQLenPdf::20                    169                       # What write queue length does an incoming req see
system.mem_ctrls.wrQLenPdf::21                    172                       # What write queue length does an incoming req see
system.mem_ctrls.wrQLenPdf::22                    141                       # What write queue length does an incoming req see
system.mem_ctrls.wrQLenPdf::23                    170                       # What write queue length does an incoming req see
system.mem_ctrls.wrQLenPdf::24                    166                       # What write queue length does an incoming req see
system.mem_ctrls.wrQLenPdf::25                    146                       # What write queue length does an incoming req see
system.mem_ctrls.wrQLenPdf::26                    149                       # What write queue length does an incoming req see
system.mem_ctrls.wrQLenPdf::27                    138                       # What write queue length does an incoming req see
system.mem_ctrls.wrQLenPdf::28                    141                       # What write queue length does an incoming req see
system.mem_ctrls.wrQLenPdf::29                    130                       # What write queue length does an incoming req see
system.mem_ctrls.wrQLenPdf::30                    131                       # What write queue length does an incoming req see
system.mem_ctrls.wrQLenPdf::31                    127                       # What write queue length does an incoming req see
system.mem_ctrls.wrQLenPdf::32                    124                       # What write queue length does an incoming req see
system.mem_ctrls.wrQLenPdf::33                      6                       # What write queue length does an incoming req see
system.mem_ctrls.wrQLenPdf::34                      3                       # What write queue length does an incoming req see
system.mem_ctrls.wrQLenPdf::35                      4                       # What write queue length does an incoming req see
system.mem_ctrls.wrQLenPdf::36                      3                       # What write queue length does an incoming req see
system.mem_ctrls.wrQLenPdf::37                      3                       # What write queue length does an incoming req see
system.mem_ctrls.wrQLenPdf::38                      2                       # What write queue length does an incoming req see
system.mem_ctrls.wrQLenPdf::39                      2                       # What write queue length does an incoming req see
system.mem_ctrls.wrQLenPdf::40                      2                       # What write queue length does an incoming req see
system.mem_ctrls.wrQLenPdf::41                      1                       # What write queue length does an incoming req see
system.mem_ctrls.wrQLenPdf::42                      0                       # What write queue length does an incoming req see
system.mem_ctrls.wrQLenPdf::43                      0                       # What write queue length does an incoming req see
system.mem_ctrls.wrQLenPdf::44                      0                       # What write queue length does an incoming req see
system.mem_ctrls.wrQLenPdf::45                      0                       # What write queue length does an incoming req see
system.mem_ctrls.wrQLenPdf::46                      0                       # What write queue length does an incoming req see
system.mem_ctrls.wrQLenPdf::47                      0                       # What write queue length does an incoming req see
system.mem_ctrls.wrQLenPdf::48                      0                       # What write queue length does an incoming req see
system.mem_ctrls.wrQLenPdf::49                      0                       # What write queue length does an incoming req see
system.mem_ctrls.wrQLenPdf::50                      0                       # What write queue length does an incoming req see
system.mem_ctrls.wrQLenPdf::51                      0                       # What write queue length does an incoming req see
system.mem_ctrls.wrQLenPdf::52                      0                       # What write queue length does an incoming req see
system.mem_ctrls.wrQLenPdf::53                      0                       # What write queue length does an incoming req see
system.mem_ctrls.wrQLenPdf::54                      0                       # What write queue length does an incoming req see
system.mem_ctrls.wrQLenPdf::55                      0                       # What write queue length does an incoming req see
system.mem_ctrls.wrQLenPdf::56                      0                       # What write queue length does an incoming req see
system.mem_ctrls.wrQLenPdf::57                      0                       # What write queue length does an incoming req see
system.mem_ctrls.wrQLenPdf::58                      0                       # What write queue length does an incoming req see
system.mem_ctrls.wrQLenPdf::59                      0                       # What write queue length does an incoming req see
system.mem_ctrls.wrQLenPdf::60                      0                       # What write queue length does an incoming req see
system.mem_ctrls.wrQLenPdf::61                      0                       # What write queue length does an incoming req see
system.mem_ctrls.wrQLenPdf::62                      0                       # What write queue length does an incoming req see
system.mem_ctrls.wrQLenPdf::63                      0                       # What write queue length does an incoming req see
system.mem_ctrls.bytesPerActivate::samples         3291                       # Bytes accessed per row activation
system.mem_ctrls.bytesPerActivate::mean    186.593741                       # Bytes accessed per row activation
system.mem_ctrls.bytesPerActivate::gmean   115.800991                       # Bytes accessed per row activation
system.mem_ctrls.bytesPerActivate::stdev   252.859808                       # Bytes accessed per row activation
system.mem_ctrls.bytesPerActivate::0-127         1781     54.12%     54.12% # Bytes accessed per row activation
system.mem_ctrls.bytesPerActivate::128-255          946     28.75%     82.86% # Bytes accessed per row activation
system.mem_ctrls.bytesPerActivate::256-383          161      4.89%     87.75% # Bytes accessed per row activation
system.mem_ctrls.bytesPerActivate::384-511           73      2.22%     89.97% # Bytes accessed per row activation
system.mem_ctrls.bytesPerActivate::512-639           55      1.67%     91.64% # Bytes accessed per row activation
system.mem_ctrls.bytesPerActivate::640-767           33      1.00%     92.65% # Bytes accessed per row activation
system.mem_ctrls.bytesPerActivate::768-895           16      0.49%     93.13% # Bytes accessed per row activation
system.mem_ctrls.bytesPerActivate::896-1023           24      0.73%     93.86% # Bytes accessed per row activation
system.mem_ctrls.bytesPerActivate::1024-1151          202      6.14%    100.00% # Bytes accessed per row activation
system.mem_ctrls.bytesPerActivate::total         3291                       # Bytes accessed per row activation
system.mem_ctrls.rdPerTurnAround::samples          120                       # Reads before turning the bus around for writes
system.mem_ctrls.rdPerTurnAround::mean     184.350000                       # Reads before turning the bus around for writes
system.mem_ctrls.rdPerTurnAround::stdev   1415.063699                       # Reads before turning the bus around for writes
system.mem_ctrls.rdPerTurnAround::0-511           116     96.67%     96.67% # Reads before turning the bus around for writes
system.mem_ctrls.rdPerTurnAround::512-1023            3      2.50%     99.17% # Reads before turning the bus around for writes
system.mem_ctrls.rdPerTurnAround::15360-15871            1      0.83%    100.00% # Reads before turning the bus around for writes
system.mem_ctrls.rdPerTurnAround::total           120                       # Reads before turning the bus around for writes
system.mem_ctrls.wrPerTurnAround::samples          120                       # Writes before turning the bus around for reads
system.mem_ctrls.wrPerTurnAround::mean      21.383333                       # Writes before turning the bus around for reads
system.mem_ctrls.wrPerTurnAround::gmean     20.970387                       # Writes before turning the bus around for reads
system.mem_ctrls.wrPerTurnAround::stdev      4.354430                       # Writes before turning the bus around for reads
system.mem_ctrls.wrPerTurnAround::16               31     25.83%     25.83% # Writes before turning the bus around for reads
system.mem_ctrls.wrPerTurnAround::17                2      1.67%     27.50% # Writes before turning the bus around for reads
system.mem_ctrls.wrPerTurnAround::18                3      2.50%     30.00% # Writes before turning the bus around for reads
system.mem_ctrls.wrPerTurnAround::21               28     23.33%     53.33% # Writes before turning the bus around for reads
system.mem_ctrls.wrPerTurnAround::22               10      8.33%     61.67% # Writes before turning the bus around for reads
system.mem_ctrls.wrPerTurnAround::24               28     23.33%     85.00% # Writes before turning the bus around for reads
system.mem_ctrls.wrPerTurnAround::25                6      5.00%     90.00% # Writes before turning the bus around for reads
system.mem_ctrls.wrPerTurnAround::26                1      0.83%     90.83% # Writes before turning the bus around for reads
system.mem_ctrls.wrPerTurnAround::27                1      0.83%     91.67% # Writes before turning the bus around for reads
system.mem_ctrls.wrPerTurnAround::28                8      6.67%     98.33% # Writes before turning the bus around for reads
system.mem_ctrls.wrPerTurnAround::31                1      0.83%     99.17% # Writes before turning the bus around for reads
system.mem_ctrls.wrPerTurnAround::44                1      0.83%    100.00% # Writes before turning the bus around for reads
system.mem_ctrls.wrPerTurnAround::total           120                       # Writes before turning the bus around for reads
system.mem_ctrls.totQLat                     75171498                       # Total ticks spent queuing
system.mem_ctrls.totMemAccLat               206927748                       # Total ticks spent from burst creation until serviced by the DRAM
system.mem_ctrls.totBusLat                   35135000                       # Total ticks spent in databus transfers
system.mem_ctrls.avgQLat                     10697.52                       # Average queueing delay per DRAM burst
system.mem_ctrls.avgBusLat                    5000.00                       # Average bus latency per DRAM burst
system.mem_ctrls.avgMemAccLat                29447.52                       # Average memory access latency per DRAM burst
system.mem_ctrls.avgRdBW                         0.97                       # Average DRAM read bandwidth in MiByte/s
system.mem_ctrls.avgWrBW                         0.36                       # Average achieved write bandwidth in MiByte/s
system.mem_ctrls.avgRdBWSys                      0.98                       # Average system read bandwidth in MiByte/s
system.mem_ctrls.avgWrBWSys                      0.36                       # Average system write bandwidth in MiByte/s
system.mem_ctrls.peakBW                      12800.00                       # Theoretical peak bandwidth in MiByte/s
system.mem_ctrls.busUtil                         0.01                       # Data bus utilization in percentage
system.mem_ctrls.busUtilRead                     0.01                       # Data bus utilization in percentage for reads
system.mem_ctrls.busUtilWrite                    0.00                       # Data bus utilization in percentage for writes
system.mem_ctrls.avgRdQLen                       1.00                       # Average read queue length when enqueuing
system.mem_ctrls.avgWrQLen                      25.45                       # Average write queue length when enqueuing
system.mem_ctrls.readRowHits                     4121                       # Number of row buffer hits during reads
system.mem_ctrls.writeRowHits                    2181                       # Number of row buffer hits during writes
system.mem_ctrls.readRowHitRate                 58.65                       # Row buffer hit rate for reads
system.mem_ctrls.writeRowHitRate                85.00                       # Row buffer hit rate for writes
system.mem_ctrls.avgGap                   48011458.52                       # Average gap between requests
system.mem_ctrls.pageHitRate                    65.69                       # Row buffer hit rate, read and write combined
system.mem_ctrls_0.actEnergy                 29234520                       # Energy for activate commands per rank (pJ)
system.mem_ctrls_0.preEnergy                 15951375                       # Energy for precharge commands per rank (pJ)
system.mem_ctrls_0.readEnergy                90667200                       # Energy for read commands per rank (pJ)
system.mem_ctrls_0.writeEnergy                9324720                       # Energy for write commands per rank (pJ)
system.mem_ctrls_0.refreshEnergy          30376797360                       # Energy for refresh commands per rank (pJ)
system.mem_ctrls_0.actBackEnergy          13000145040                       # Energy for active background per rank (pJ)
system.mem_ctrls_0.preBackEnergy         267644819250                       # Energy for precharge background per rank (pJ)
system.mem_ctrls_0.totalEnergy           311166939465                       # Total energy per rank (pJ)
system.mem_ctrls_0.averagePower            669.060015                       # Core power per rank (mW)
system.mem_ctrls_0.memoryStateTime::IDLE 444003796500                       # Time in different power states
system.mem_ctrls_0.memoryStateTime::REF   15419560000                       # Time in different power states
system.mem_ctrls_0.memoryStateTime::PRE_PDN            0                       # Time in different power states
system.mem_ctrls_0.memoryStateTime::ACT    2351028500                       # Time in different power states
system.mem_ctrls_0.memoryStateTime::ACT_PDN            0                       # Time in different power states
system.mem_ctrls_1.actEnergy                 24418800                       # Energy for activate commands per rank (pJ)
system.mem_ctrls_1.preEnergy                 13323750                       # Energy for precharge commands per rank (pJ)
system.mem_ctrls_1.readEnergy                82079400                       # Energy for read commands per rank (pJ)
system.mem_ctrls_1.writeEnergy                7302960                       # Energy for write commands per rank (pJ)
system.mem_ctrls_1.refreshEnergy          30376797360                       # Energy for refresh commands per rank (pJ)
system.mem_ctrls_1.actBackEnergy          12846646035                       # Energy for active background per rank (pJ)
system.mem_ctrls_1.preBackEnergy         267779459250                       # Energy for precharge background per rank (pJ)
system.mem_ctrls_1.totalEnergy           311130027555                       # Total energy per rank (pJ)
system.mem_ctrls_1.averagePower            668.980668                       # Core power per rank (mW)
system.mem_ctrls_1.memoryStateTime::IDLE 444130505750                       # Time in different power states
system.mem_ctrls_1.memoryStateTime::REF   15419560000                       # Time in different power states
system.mem_ctrls_1.memoryStateTime::PRE_PDN            0                       # Time in different power states
system.mem_ctrls_1.memoryStateTime::ACT    2221263000                       # Time in different power states
system.mem_ctrls_1.memoryStateTime::ACT_PDN            0                       # Time in different power states
system.cpu_voltage_domain.voltage                   1                       # Voltage in Volts
system.cpu_clk_domain.clock                       500                       # Clock period in ticks
system.cpu0.apic_clk_domain.clock                8000                       # Clock period in ticks
system.cpu0.numCycles                       927552425                       # number of cpu cycles simulated
system.cpu0.numWorkItemsStarted                     0                       # number of work items this cpu started
system.cpu0.numWorkItemsCompleted                   0                       # number of work items this cpu completed
system.cpu0.kern.inst.arm                           0                       # number of arm instructions executed
system.cpu0.kern.inst.quiesce                       0                       # number of quiesce instructions executed
system.cpu0.committedInsts                     397985                       # Number of instructions committed
system.cpu0.committedOps                       840287                       # Number of ops (including micro ops) committed
system.cpu0.num_int_alu_accesses               825322                       # Number of integer alu accesses
system.cpu0.num_fp_alu_accesses                   387                       # Number of float alu accesses
system.cpu0.num_func_calls                      24781                       # number of times a function call or return occured
system.cpu0.num_conditional_control_insts        55243                       # number of instructions that are conditional controls
system.cpu0.num_int_insts                      825322                       # number of integer instructions
system.cpu0.num_fp_insts                          387                       # number of float instructions
system.cpu0.num_int_register_reads            1668219                       # number of times the integer registers were read
system.cpu0.num_int_register_writes            674029                       # number of times the integer registers were written
system.cpu0.num_fp_register_reads                 622                       # number of times the floating registers were read
system.cpu0.num_fp_register_writes                354                       # number of times the floating registers were written
system.cpu0.num_cc_register_reads              443515                       # number of times the CC registers were read
system.cpu0.num_cc_register_writes             257347                       # number of times the CC registers were written
system.cpu0.num_mem_refs                       200487                       # number of memory refs
system.cpu0.num_load_insts                     122663                       # Number of load instructions
system.cpu0.num_store_insts                     77824                       # Number of store instructions
system.cpu0.num_idle_cycles              925774392.996593                       # Number of idle cycles
system.cpu0.num_busy_cycles              1778032.003407                       # Number of busy cycles
system.cpu0.not_idle_fraction                0.001917                       # Percentage of non-idle cycles
system.cpu0.idle_fraction                    0.998083                       # Percentage of idle cycles
system.cpu0.Branches                            87520                       # Number of branches fetched
system.cpu0.op_class::No_OpClass                 9663      1.15%      1.15% # Class of executed instruction
system.cpu0.op_class::IntAlu                   625770     74.47%     75.62% # Class of executed instruction
system.cpu0.op_class::IntMult                    1673      0.20%     75.82% # Class of executed instruction
system.cpu0.op_class::IntDiv                     2478      0.29%     76.11% # Class of executed instruction
system.cpu0.op_class::FloatAdd                    239      0.03%     76.14% # Class of executed instruction
system.cpu0.op_class::FloatCmp                      0      0.00%     76.14% # Class of executed instruction
system.cpu0.op_class::FloatCvt                      0      0.00%     76.14% # Class of executed instruction
system.cpu0.op_class::FloatMult                     0      0.00%     76.14% # Class of executed instruction
system.cpu0.op_class::FloatDiv                      0      0.00%     76.14% # Class of executed instruction
system.cpu0.op_class::FloatSqrt                     0      0.00%     76.14% # Class of executed instruction
system.cpu0.op_class::SimdAdd                       0      0.00%     76.14% # Class of executed instruction
system.cpu0.op_class::SimdAddAcc                    0      0.00%     76.14% # Class of executed instruction
system.cpu0.op_class::SimdAlu                       0      0.00%     76.14% # Class of executed instruction
system.cpu0.op_class::SimdCmp                       0      0.00%     76.14% # Class of executed instruction
system.cpu0.op_class::SimdCvt                       0      0.00%     76.14% # Class of executed instruction
system.cpu0.op_class::SimdMisc                      0      0.00%     76.14% # Class of executed instruction
system.cpu0.op_class::SimdMult                      0      0.00%     76.14% # Class of executed instruction
system.cpu0.op_class::SimdMultAcc                   0      0.00%     76.14% # Class of executed instruction
system.cpu0.op_class::SimdShift                     0      0.00%     76.14% # Class of executed instruction
system.cpu0.op_class::SimdShiftAcc                  0      0.00%     76.14% # Class of executed instruction
system.cpu0.op_class::SimdSqrt                      0      0.00%     76.14% # Class of executed instruction
system.cpu0.op_class::SimdFloatAdd                  0      0.00%     76.14% # Class of executed instruction
system.cpu0.op_class::SimdFloatAlu                  0      0.00%     76.14% # Class of executed instruction
system.cpu0.op_class::SimdFloatCmp                  0      0.00%     76.14% # Class of executed instruction
system.cpu0.op_class::SimdFloatCvt                  0      0.00%     76.14% # Class of executed instruction
system.cpu0.op_class::SimdFloatDiv                  0      0.00%     76.14% # Class of executed instruction
system.cpu0.op_class::SimdFloatMisc                 0      0.00%     76.14% # Class of executed instruction
system.cpu0.op_class::SimdFloatMult                 0      0.00%     76.14% # Class of executed instruction
system.cpu0.op_class::SimdFloatMultAcc              0      0.00%     76.14% # Class of executed instruction
system.cpu0.op_class::SimdFloatSqrt                 0      0.00%     76.14% # Class of executed instruction
system.cpu0.op_class::MemRead                  122663     14.60%     90.74% # Class of executed instruction
system.cpu0.op_class::MemWrite                  77824      9.26%    100.00% # Class of executed instruction
system.cpu0.op_class::IprAccess                     0      0.00%    100.00% # Class of executed instruction
system.cpu0.op_class::InstPrefetch                  0      0.00%    100.00% # Class of executed instruction
system.cpu0.op_class::total                    840310                       # Class of executed instruction
system.cpu1.apic_clk_domain.clock                8000                       # Clock period in ticks
system.cpu1.numCycles                       925454831                       # number of cpu cycles simulated
system.cpu1.numWorkItemsStarted                     0                       # number of work items this cpu started
system.cpu1.numWorkItemsCompleted                   0                       # number of work items this cpu completed
system.cpu1.kern.inst.arm                           0                       # number of arm instructions executed
system.cpu1.kern.inst.quiesce                       0                       # number of quiesce instructions executed
system.cpu1.committedInsts                  265733129                       # Number of instructions committed
system.cpu1.committedOps                    479162756                       # Number of ops (including micro ops) committed
system.cpu1.num_int_alu_accesses            269535047                       # Number of integer alu accesses
system.cpu1.num_fp_alu_accesses             270602519                       # Number of float alu accesses
system.cpu1.num_func_calls                    9864180                       # number of times a function call or return occured
system.cpu1.num_conditional_control_insts     14997015                       # number of instructions that are conditional controls
system.cpu1.num_int_insts                   269535047                       # number of integer instructions
system.cpu1.num_fp_insts                    270602519                       # number of float instructions
system.cpu1.num_int_register_reads          512476164                       # number of times the integer registers were read
system.cpu1.num_int_register_writes         176041247                       # number of times the integer registers were written
system.cpu1.num_fp_register_reads           446698678                       # number of times the floating registers were read
system.cpu1.num_fp_register_writes          249457043                       # number of times the floating registers were written
system.cpu1.num_cc_register_reads           106890433                       # number of times the CC registers were read
system.cpu1.num_cc_register_writes           82961941                       # number of times the CC registers were written
system.cpu1.num_mem_refs                     84019359                       # number of memory refs
system.cpu1.num_load_insts                   62864775                       # Number of load instructions
system.cpu1.num_store_insts                  21154584                       # Number of store instructions
system.cpu1.num_idle_cycles              3531280.740223                       # Number of idle cycles
system.cpu1.num_busy_cycles              921923550.259777                       # Number of busy cycles
system.cpu1.not_idle_fraction                0.996184                       # Percentage of non-idle cycles
system.cpu1.idle_fraction                    0.003816                       # Percentage of idle cycles
system.cpu1.Branches                         27044429                       # Number of branches fetched
system.cpu1.op_class::No_OpClass                10605      0.00%      0.00% # Class of executed instruction
system.cpu1.op_class::IntAlu                244760845     51.08%     51.08% # Class of executed instruction
system.cpu1.op_class::IntMult                    2389      0.00%     51.08% # Class of executed instruction
system.cpu1.op_class::IntDiv                     1733      0.00%     51.08% # Class of executed instruction
system.cpu1.op_class::FloatAdd              150367922     31.38%     82.47% # Class of executed instruction
system.cpu1.op_class::FloatCmp                      0      0.00%     82.47% # Class of executed instruction
system.cpu1.op_class::FloatCvt                      0      0.00%     82.47% # Class of executed instruction
system.cpu1.op_class::FloatMult                     0      0.00%     82.47% # Class of executed instruction
system.cpu1.op_class::FloatDiv                      0      0.00%     82.47% # Class of executed instruction
system.cpu1.op_class::FloatSqrt                     0      0.00%     82.47% # Class of executed instruction
system.cpu1.op_class::SimdAdd                       0      0.00%     82.47% # Class of executed instruction
system.cpu1.op_class::SimdAddAcc                    0      0.00%     82.47% # Class of executed instruction
system.cpu1.op_class::SimdAlu                       0      0.00%     82.47% # Class of executed instruction
system.cpu1.op_class::SimdCmp                       0      0.00%     82.47% # Class of executed instruction
system.cpu1.op_class::SimdCvt                       0      0.00%     82.47% # Class of executed instruction
system.cpu1.op_class::SimdMisc                      0      0.00%     82.47% # Class of executed instruction
system.cpu1.op_class::SimdMult                      0      0.00%     82.47% # Class of executed instruction
system.cpu1.op_class::SimdMultAcc                   0      0.00%     82.47% # Class of executed instruction
system.cpu1.op_class::SimdShift                     0      0.00%     82.47% # Class of executed instruction
system.cpu1.op_class::SimdShiftAcc                  0      0.00%     82.47% # Class of executed instruction
system.cpu1.op_class::SimdSqrt                      0      0.00%     82.47% # Class of executed instruction
system.cpu1.op_class::SimdFloatAdd                  0      0.00%     82.47% # Class of executed instruction
system.cpu1.op_class::SimdFloatAlu                  0      0.00%     82.47% # Class of executed instruction
system.cpu1.op_class::SimdFloatCmp                  0      0.00%     82.47% # Class of executed instruction
system.cpu1.op_class::SimdFloatCvt                  0      0.00%     82.47% # Class of executed instruction
system.cpu1.op_class::SimdFloatDiv                  0      0.00%     82.47% # Class of executed instruction
system.cpu1.op_class::SimdFloatMisc                 0      0.00%     82.47% # Class of executed instruction
system.cpu1.op_class::SimdFloatMult                 0      0.00%     82.47% # Class of executed instruction
system.cpu1.op_class::SimdFloatMultAcc              0      0.00%     82.47% # Class of executed instruction
system.cpu1.op_class::SimdFloatSqrt                 0      0.00%     82.47% # Class of executed instruction
system.cpu1.op_class::MemRead                62864775     13.12%     95.59% # Class of executed instruction
system.cpu1.op_class::MemWrite               21154584      4.41%    100.00% # Class of executed instruction
system.cpu1.op_class::IprAccess                     0      0.00%    100.00% # Class of executed instruction
system.cpu1.op_class::InstPrefetch                  0      0.00%    100.00% # Class of executed instruction
system.cpu1.op_class::total                 479162853                       # Class of executed instruction
system.cpu2.apic_clk_domain.clock                8000                       # Clock period in ticks
system.cpu2.numCycles                       923488123                       # number of cpu cycles simulated
system.cpu2.numWorkItemsStarted                     0                       # number of work items this cpu started
system.cpu2.numWorkItemsCompleted                   0                       # number of work items this cpu completed
system.cpu2.kern.inst.arm                           0                       # number of arm instructions executed
system.cpu2.kern.inst.quiesce                       0                       # number of quiesce instructions executed
system.cpu2.committedInsts                     367531                       # Number of instructions committed
system.cpu2.committedOps                       778641                       # Number of ops (including micro ops) committed
system.cpu2.num_int_alu_accesses               763620                       # Number of integer alu accesses
system.cpu2.num_fp_alu_accesses                    33                       # Number of float alu accesses
system.cpu2.num_func_calls                      21503                       # number of times a function call or return occured
system.cpu2.num_conditional_control_insts        56150                       # number of instructions that are conditional controls
system.cpu2.num_int_insts                      763620                       # number of integer instructions
system.cpu2.num_fp_insts                           33                       # number of float instructions
system.cpu2.num_int_register_reads            1540294                       # number of times the integer registers were read
system.cpu2.num_int_register_writes            627986                       # number of times the integer registers were written
system.cpu2.num_fp_register_reads                  14                       # number of times the floating registers were read
system.cpu2.num_fp_register_writes                 25                       # number of times the floating registers were written
system.cpu2.num_cc_register_reads              435105                       # number of times the CC registers were read
system.cpu2.num_cc_register_writes             234022                       # number of times the CC registers were written
system.cpu2.num_mem_refs                       183556                       # number of memory refs
system.cpu2.num_load_insts                     113595                       # Number of load instructions
system.cpu2.num_store_insts                     69961                       # Number of store instructions
system.cpu2.num_idle_cycles              921764504.834654                       # Number of idle cycles
system.cpu2.num_busy_cycles              1723618.165346                       # Number of busy cycles
system.cpu2.not_idle_fraction                0.001866                       # Percentage of non-idle cycles
system.cpu2.idle_fraction                    0.998134                       # Percentage of idle cycles
system.cpu2.Branches                            84518                       # Number of branches fetched
system.cpu2.op_class::No_OpClass                11647      1.50%      1.50% # Class of executed instruction
system.cpu2.op_class::IntAlu                   577880     74.22%     75.71% # Class of executed instruction
system.cpu2.op_class::IntMult                    1574      0.20%     75.91% # Class of executed instruction
system.cpu2.op_class::IntDiv                     3971      0.51%     76.42% # Class of executed instruction
system.cpu2.op_class::FloatAdd                     17      0.00%     76.43% # Class of executed instruction
system.cpu2.op_class::FloatCmp                      0      0.00%     76.43% # Class of executed instruction
system.cpu2.op_class::FloatCvt                      0      0.00%     76.43% # Class of executed instruction
system.cpu2.op_class::FloatMult                     0      0.00%     76.43% # Class of executed instruction
system.cpu2.op_class::FloatDiv                      0      0.00%     76.43% # Class of executed instruction
system.cpu2.op_class::FloatSqrt                     0      0.00%     76.43% # Class of executed instruction
system.cpu2.op_class::SimdAdd                       0      0.00%     76.43% # Class of executed instruction
system.cpu2.op_class::SimdAddAcc                    0      0.00%     76.43% # Class of executed instruction
system.cpu2.op_class::SimdAlu                       0      0.00%     76.43% # Class of executed instruction
system.cpu2.op_class::SimdCmp                       0      0.00%     76.43% # Class of executed instruction
system.cpu2.op_class::SimdCvt                       0      0.00%     76.43% # Class of executed instruction
system.cpu2.op_class::SimdMisc                      0      0.00%     76.43% # Class of executed instruction
system.cpu2.op_class::SimdMult                      0      0.00%     76.43% # Class of executed instruction
system.cpu2.op_class::SimdMultAcc                   0      0.00%     76.43% # Class of executed instruction
system.cpu2.op_class::SimdShift                     0      0.00%     76.43% # Class of executed instruction
system.cpu2.op_class::SimdShiftAcc                  0      0.00%     76.43% # Class of executed instruction
system.cpu2.op_class::SimdSqrt                      0      0.00%     76.43% # Class of executed instruction
system.cpu2.op_class::SimdFloatAdd                  0      0.00%     76.43% # Class of executed instruction
system.cpu2.op_class::SimdFloatAlu                  0      0.00%     76.43% # Class of executed instruction
system.cpu2.op_class::SimdFloatCmp                  0      0.00%     76.43% # Class of executed instruction
system.cpu2.op_class::SimdFloatCvt                  0      0.00%     76.43% # Class of executed instruction
system.cpu2.op_class::SimdFloatDiv                  0      0.00%     76.43% # Class of executed instruction
system.cpu2.op_class::SimdFloatMisc                 0      0.00%     76.43% # Class of executed instruction
system.cpu2.op_class::SimdFloatMult                 0      0.00%     76.43% # Class of executed instruction
system.cpu2.op_class::SimdFloatMultAcc              0      0.00%     76.43% # Class of executed instruction
system.cpu2.op_class::SimdFloatSqrt                 0      0.00%     76.43% # Class of executed instruction
system.cpu2.op_class::MemRead                  113595     14.59%     91.02% # Class of executed instruction
system.cpu2.op_class::MemWrite                  69961      8.98%    100.00% # Class of executed instruction
system.cpu2.op_class::IprAccess                     0      0.00%    100.00% # Class of executed instruction
system.cpu2.op_class::InstPrefetch                  0      0.00%    100.00% # Class of executed instruction
system.cpu2.op_class::total                    778645                       # Class of executed instruction
system.cpu3.apic_clk_domain.clock                8000                       # Clock period in ticks
system.cpu3.numCycles                       921744422                       # number of cpu cycles simulated
system.cpu3.numWorkItemsStarted                     0                       # number of work items this cpu started
system.cpu3.numWorkItemsCompleted                   0                       # number of work items this cpu completed
system.cpu3.kern.inst.arm                           0                       # number of arm instructions executed
system.cpu3.kern.inst.quiesce                       0                       # number of quiesce instructions executed
system.cpu3.committedInsts                     999312                       # Number of instructions committed
system.cpu3.committedOps                      1934727                       # Number of ops (including micro ops) committed
system.cpu3.num_int_alu_accesses              1905107                       # Number of integer alu accesses
system.cpu3.num_fp_alu_accesses                  1778                       # Number of float alu accesses
system.cpu3.num_func_calls                      40750                       # number of times a function call or return occured
system.cpu3.num_conditional_control_insts       156500                       # number of instructions that are conditional controls
system.cpu3.num_int_insts                     1905107                       # number of integer instructions
system.cpu3.num_fp_insts                         1778                       # number of float instructions
system.cpu3.num_int_register_reads            3880647                       # number of times the integer registers were read
system.cpu3.num_int_register_writes           1551093                       # number of times the integer registers were written
system.cpu3.num_fp_register_reads                2988                       # number of times the floating registers were read
system.cpu3.num_fp_register_writes               1416                       # number of times the floating registers were written
system.cpu3.num_cc_register_reads             1107322                       # number of times the CC registers were read
system.cpu3.num_cc_register_writes             643928                       # number of times the CC registers were written
system.cpu3.num_mem_refs                       444183                       # number of memory refs
system.cpu3.num_load_insts                     273178                       # Number of load instructions
system.cpu3.num_store_insts                    171005                       # Number of store instructions
system.cpu3.num_idle_cycles              917619449.920142                       # Number of idle cycles
system.cpu3.num_busy_cycles              4124972.079858                       # Number of busy cycles
system.cpu3.not_idle_fraction                0.004475                       # Percentage of non-idle cycles
system.cpu3.idle_fraction                    0.995525                       # Percentage of idle cycles
system.cpu3.Branches                           212803                       # Number of branches fetched
system.cpu3.op_class::No_OpClass                19819      1.02%      1.02% # Class of executed instruction
system.cpu3.op_class::IntAlu                  1461277     75.53%     76.55% # Class of executed instruction
system.cpu3.op_class::IntMult                    2354      0.12%     76.67% # Class of executed instruction
system.cpu3.op_class::IntDiv                     5840      0.30%     76.97% # Class of executed instruction
system.cpu3.op_class::FloatAdd                   1344      0.07%     77.04% # Class of executed instruction
system.cpu3.op_class::FloatCmp                      0      0.00%     77.04% # Class of executed instruction
system.cpu3.op_class::FloatCvt                      0      0.00%     77.04% # Class of executed instruction
system.cpu3.op_class::FloatMult                     0      0.00%     77.04% # Class of executed instruction
system.cpu3.op_class::FloatDiv                      0      0.00%     77.04% # Class of executed instruction
system.cpu3.op_class::FloatSqrt                     0      0.00%     77.04% # Class of executed instruction
system.cpu3.op_class::SimdAdd                       0      0.00%     77.04% # Class of executed instruction
system.cpu3.op_class::SimdAddAcc                    0      0.00%     77.04% # Class of executed instruction
system.cpu3.op_class::SimdAlu                       0      0.00%     77.04% # Class of executed instruction
system.cpu3.op_class::SimdCmp                       0      0.00%     77.04% # Class of executed instruction
system.cpu3.op_class::SimdCvt                       0      0.00%     77.04% # Class of executed instruction
system.cpu3.op_class::SimdMisc                      0      0.00%     77.04% # Class of executed instruction
system.cpu3.op_class::SimdMult                      0      0.00%     77.04% # Class of executed instruction
system.cpu3.op_class::SimdMultAcc                   0      0.00%     77.04% # Class of executed instruction
system.cpu3.op_class::SimdShift                     0      0.00%     77.04% # Class of executed instruction
system.cpu3.op_class::SimdShiftAcc                  0      0.00%     77.04% # Class of executed instruction
system.cpu3.op_class::SimdSqrt                      0      0.00%     77.04% # Class of executed instruction
system.cpu3.op_class::SimdFloatAdd                  0      0.00%     77.04% # Class of executed instruction
system.cpu3.op_class::SimdFloatAlu                  0      0.00%     77.04% # Class of executed instruction
system.cpu3.op_class::SimdFloatCmp                  0      0.00%     77.04% # Class of executed instruction
system.cpu3.op_class::SimdFloatCvt                  0      0.00%     77.04% # Class of executed instruction
system.cpu3.op_class::SimdFloatDiv                  0      0.00%     77.04% # Class of executed instruction
system.cpu3.op_class::SimdFloatMisc                 0      0.00%     77.04% # Class of executed instruction
system.cpu3.op_class::SimdFloatMult                 0      0.00%     77.04% # Class of executed instruction
system.cpu3.op_class::SimdFloatMultAcc              0      0.00%     77.04% # Class of executed instruction
system.cpu3.op_class::SimdFloatSqrt                 0      0.00%     77.04% # Class of executed instruction
system.cpu3.op_class::MemRead                  273178     14.12%     91.16% # Class of executed instruction
system.cpu3.op_class::MemWrite                 171005      8.84%    100.00% # Class of executed instruction
system.cpu3.op_class::IprAccess                     0      0.00%    100.00% # Class of executed instruction
system.cpu3.op_class::InstPrefetch                  0      0.00%    100.00% # Class of executed instruction
system.cpu3.op_class::total                   1934817                       # Class of executed instruction
system.iobus.trans_dist::ReadReq                  101                       # Transaction distribution
system.iobus.trans_dist::ReadResp                 101                       # Transaction distribution
system.iobus.trans_dist::WriteReq                 566                       # Transaction distribution
system.iobus.trans_dist::WriteResp                566                       # Transaction distribution
system.iobus.trans_dist::MessageReq                18                       # Transaction distribution
system.iobus.trans_dist::MessageResp               18                       # Transaction distribution
system.iobus.pkt_count_system.pc.south_bridge.io_apic.int_master::system.ruby.l1_cntrl0.sequencer.pio-slave-port            4                       # Packet count per connected master and slave (bytes)
system.iobus.pkt_count_system.pc.south_bridge.io_apic.int_master::system.ruby.l1_cntrl1.sequencer.pio-slave-port            4                       # Packet count per connected master and slave (bytes)
system.iobus.pkt_count_system.pc.south_bridge.io_apic.int_master::system.ruby.l1_cntrl2.sequencer.pio-slave-port            4                       # Packet count per connected master and slave (bytes)
system.iobus.pkt_count_system.pc.south_bridge.io_apic.int_master::system.ruby.l1_cntrl3.sequencer.pio-slave-port            2                       # Packet count per connected master and slave (bytes)
system.iobus.pkt_count_system.pc.south_bridge.io_apic.int_master::total           14                       # Packet count per connected master and slave (bytes)
system.iobus.pkt_count_system.ruby.l1_cntrl0.sequencer.mem-master-port::system.pc.south_bridge.ide.pio           46                       # Packet count per connected master and slave (bytes)
system.iobus.pkt_count_system.ruby.l1_cntrl0.sequencer.mem-master-port::system.pc.south_bridge.io_apic.pio            8                       # Packet count per connected master and slave (bytes)
system.iobus.pkt_count_system.ruby.l1_cntrl0.sequencer.mem-master-port::system.ruby.l1_cntrl0.sequencer.pio-slave-port          248                       # Packet count per connected master and slave (bytes)
system.iobus.pkt_count_system.ruby.l1_cntrl0.sequencer.mem-master-port::system.ruby.l1_cntrl1.sequencer.pio-slave-port            2                       # Packet count per connected master and slave (bytes)
system.iobus.pkt_count_system.ruby.l1_cntrl0.sequencer.mem-master-port::total          304                       # Packet count per connected master and slave (bytes)
system.iobus.pkt_count_system.ruby.l1_cntrl1.sequencer.mem-master-port::system.pc.south_bridge.ide.pio           12                       # Packet count per connected master and slave (bytes)
system.iobus.pkt_count_system.ruby.l1_cntrl1.sequencer.mem-master-port::system.pc.south_bridge.io_apic.pio            6                       # Packet count per connected master and slave (bytes)
system.iobus.pkt_count_system.ruby.l1_cntrl1.sequencer.mem-master-port::system.pc.com_1.pio           22                       # Packet count per connected master and slave (bytes)
system.iobus.pkt_count_system.ruby.l1_cntrl1.sequencer.mem-master-port::system.ruby.l1_cntrl0.sequencer.pio-slave-port            4                       # Packet count per connected master and slave (bytes)
system.iobus.pkt_count_system.ruby.l1_cntrl1.sequencer.mem-master-port::system.ruby.l1_cntrl1.sequencer.pio-slave-port          270                       # Packet count per connected master and slave (bytes)
system.iobus.pkt_count_system.ruby.l1_cntrl1.sequencer.mem-master-port::system.ruby.l1_cntrl2.sequencer.pio-slave-port            8                       # Packet count per connected master and slave (bytes)
system.iobus.pkt_count_system.ruby.l1_cntrl1.sequencer.mem-master-port::total          322                       # Packet count per connected master and slave (bytes)
system.iobus.pkt_count_system.ruby.l1_cntrl2.sequencer.mem-master-port::system.pc.south_bridge.ide.pio           34                       # Packet count per connected master and slave (bytes)
system.iobus.pkt_count_system.ruby.l1_cntrl2.sequencer.mem-master-port::system.pc.south_bridge.io_apic.pio           14                       # Packet count per connected master and slave (bytes)
system.iobus.pkt_count_system.ruby.l1_cntrl2.sequencer.mem-master-port::system.pc.com_1.pio          162                       # Packet count per connected master and slave (bytes)
system.iobus.pkt_count_system.ruby.l1_cntrl2.sequencer.mem-master-port::system.ruby.l1_cntrl2.sequencer.pio-slave-port          252                       # Packet count per connected master and slave (bytes)
system.iobus.pkt_count_system.ruby.l1_cntrl2.sequencer.mem-master-port::system.ruby.l1_cntrl3.sequencer.pio-slave-port            2                       # Packet count per connected master and slave (bytes)
system.iobus.pkt_count_system.ruby.l1_cntrl2.sequencer.mem-master-port::total          464                       # Packet count per connected master and slave (bytes)
system.iobus.pkt_count_system.ruby.l1_cntrl3.sequencer.mem-master-port::system.pc.south_bridge.io_apic.pio            8                       # Packet count per connected master and slave (bytes)
system.iobus.pkt_count_system.ruby.l1_cntrl3.sequencer.mem-master-port::system.ruby.l1_cntrl0.sequencer.pio-slave-port            2                       # Packet count per connected master and slave (bytes)
system.iobus.pkt_count_system.ruby.l1_cntrl3.sequencer.mem-master-port::system.ruby.l1_cntrl1.sequencer.pio-slave-port            2                       # Packet count per connected master and slave (bytes)
system.iobus.pkt_count_system.ruby.l1_cntrl3.sequencer.mem-master-port::system.ruby.l1_cntrl2.sequencer.pio-slave-port            2                       # Packet count per connected master and slave (bytes)
system.iobus.pkt_count_system.ruby.l1_cntrl3.sequencer.mem-master-port::system.ruby.l1_cntrl3.sequencer.pio-slave-port          252                       # Packet count per connected master and slave (bytes)
system.iobus.pkt_count_system.ruby.l1_cntrl3.sequencer.mem-master-port::total          266                       # Packet count per connected master and slave (bytes)
system.iobus.pkt_count::total                    1370                       # Packet count per connected master and slave (bytes)
system.iobus.pkt_size_system.pc.south_bridge.io_apic.int_master::system.ruby.l1_cntrl0.sequencer.pio-slave-port            8                       # Cumulative packet size per connected master and slave (bytes)
system.iobus.pkt_size_system.pc.south_bridge.io_apic.int_master::system.ruby.l1_cntrl1.sequencer.pio-slave-port            8                       # Cumulative packet size per connected master and slave (bytes)
system.iobus.pkt_size_system.pc.south_bridge.io_apic.int_master::system.ruby.l1_cntrl2.sequencer.pio-slave-port            8                       # Cumulative packet size per connected master and slave (bytes)
system.iobus.pkt_size_system.pc.south_bridge.io_apic.int_master::system.ruby.l1_cntrl3.sequencer.pio-slave-port            4                       # Cumulative packet size per connected master and slave (bytes)
system.iobus.pkt_size_system.pc.south_bridge.io_apic.int_master::total           28                       # Cumulative packet size per connected master and slave (bytes)
system.iobus.pkt_size_system.ruby.l1_cntrl0.sequencer.mem-master-port::system.pc.south_bridge.ide.pio           26                       # Cumulative packet size per connected master and slave (bytes)
system.iobus.pkt_size_system.ruby.l1_cntrl0.sequencer.mem-master-port::system.pc.south_bridge.io_apic.pio           16                       # Cumulative packet size per connected master and slave (bytes)
system.iobus.pkt_size_system.ruby.l1_cntrl0.sequencer.mem-master-port::system.ruby.l1_cntrl0.sequencer.pio-slave-port          496                       # Cumulative packet size per connected master and slave (bytes)
system.iobus.pkt_size_system.ruby.l1_cntrl0.sequencer.mem-master-port::system.ruby.l1_cntrl1.sequencer.pio-slave-port            4                       # Cumulative packet size per connected master and slave (bytes)
system.iobus.pkt_size_system.ruby.l1_cntrl0.sequencer.mem-master-port::total          542                       # Cumulative packet size per connected master and slave (bytes)
system.iobus.pkt_size_system.ruby.l1_cntrl1.sequencer.mem-master-port::system.pc.south_bridge.ide.pio            6                       # Cumulative packet size per connected master and slave (bytes)
system.iobus.pkt_size_system.ruby.l1_cntrl1.sequencer.mem-master-port::system.pc.south_bridge.io_apic.pio           12                       # Cumulative packet size per connected master and slave (bytes)
system.iobus.pkt_size_system.ruby.l1_cntrl1.sequencer.mem-master-port::system.pc.com_1.pio           11                       # Cumulative packet size per connected master and slave (bytes)
system.iobus.pkt_size_system.ruby.l1_cntrl1.sequencer.mem-master-port::system.ruby.l1_cntrl0.sequencer.pio-slave-port            8                       # Cumulative packet size per connected master and slave (bytes)
system.iobus.pkt_size_system.ruby.l1_cntrl1.sequencer.mem-master-port::system.ruby.l1_cntrl1.sequencer.pio-slave-port          540                       # Cumulative packet size per connected master and slave (bytes)
system.iobus.pkt_size_system.ruby.l1_cntrl1.sequencer.mem-master-port::system.ruby.l1_cntrl2.sequencer.pio-slave-port           16                       # Cumulative packet size per connected master and slave (bytes)
system.iobus.pkt_size_system.ruby.l1_cntrl1.sequencer.mem-master-port::total          593                       # Cumulative packet size per connected master and slave (bytes)
system.iobus.pkt_size_system.ruby.l1_cntrl2.sequencer.mem-master-port::system.pc.south_bridge.ide.pio           20                       # Cumulative packet size per connected master and slave (bytes)
system.iobus.pkt_size_system.ruby.l1_cntrl2.sequencer.mem-master-port::system.pc.south_bridge.io_apic.pio           28                       # Cumulative packet size per connected master and slave (bytes)
system.iobus.pkt_size_system.ruby.l1_cntrl2.sequencer.mem-master-port::system.pc.com_1.pio           81                       # Cumulative packet size per connected master and slave (bytes)
system.iobus.pkt_size_system.ruby.l1_cntrl2.sequencer.mem-master-port::system.ruby.l1_cntrl2.sequencer.pio-slave-port          504                       # Cumulative packet size per connected master and slave (bytes)
system.iobus.pkt_size_system.ruby.l1_cntrl2.sequencer.mem-master-port::system.ruby.l1_cntrl3.sequencer.pio-slave-port            4                       # Cumulative packet size per connected master and slave (bytes)
system.iobus.pkt_size_system.ruby.l1_cntrl2.sequencer.mem-master-port::total          637                       # Cumulative packet size per connected master and slave (bytes)
system.iobus.pkt_size_system.ruby.l1_cntrl3.sequencer.mem-master-port::system.pc.south_bridge.io_apic.pio           16                       # Cumulative packet size per connected master and slave (bytes)
system.iobus.pkt_size_system.ruby.l1_cntrl3.sequencer.mem-master-port::system.ruby.l1_cntrl0.sequencer.pio-slave-port            4                       # Cumulative packet size per connected master and slave (bytes)
system.iobus.pkt_size_system.ruby.l1_cntrl3.sequencer.mem-master-port::system.ruby.l1_cntrl1.sequencer.pio-slave-port            4                       # Cumulative packet size per connected master and slave (bytes)
system.iobus.pkt_size_system.ruby.l1_cntrl3.sequencer.mem-master-port::system.ruby.l1_cntrl2.sequencer.pio-slave-port            4                       # Cumulative packet size per connected master and slave (bytes)
system.iobus.pkt_size_system.ruby.l1_cntrl3.sequencer.mem-master-port::system.ruby.l1_cntrl3.sequencer.pio-slave-port          504                       # Cumulative packet size per connected master and slave (bytes)
system.iobus.pkt_size_system.ruby.l1_cntrl3.sequencer.mem-master-port::total          532                       # Cumulative packet size per connected master and slave (bytes)
system.iobus.pkt_size::total                     2332                       # Cumulative packet size per connected master and slave (bytes)
system.iobus.reqLayer2.occupancy                80500                       # Layer occupancy (ticks)
system.iobus.reqLayer2.utilization                0.0                       # Layer utilization (%)
system.iobus.reqLayer8.occupancy                32996                       # Layer occupancy (ticks)
system.iobus.reqLayer8.utilization                0.0                       # Layer utilization (%)
system.iobus.reqLayer12.occupancy              121500                       # Layer occupancy (ticks)
system.iobus.reqLayer12.utilization               0.0                       # Layer utilization (%)
system.iobus.reqLayer17.occupancy              317999                       # Layer occupancy (ticks)
system.iobus.reqLayer17.utilization               0.0                       # Layer utilization (%)
system.iobus.reqLayer18.occupancy              306995                       # Layer occupancy (ticks)
system.iobus.reqLayer18.utilization               0.0                       # Layer utilization (%)
system.iobus.reqLayer19.occupancy              326498                       # Layer occupancy (ticks)
system.iobus.reqLayer19.utilization               0.0                       # Layer utilization (%)
system.iobus.reqLayer20.occupancy              312998                       # Layer occupancy (ticks)
system.iobus.reqLayer20.utilization               0.0                       # Layer utilization (%)
system.iobus.respLayer0.occupancy                9498                       # Layer occupancy (ticks)
system.iobus.respLayer0.utilization               0.0                       # Layer utilization (%)
system.iobus.respLayer2.occupancy              225000                       # Layer occupancy (ticks)
system.iobus.respLayer2.utilization               0.0                       # Layer utilization (%)
system.iobus.respLayer4.occupancy              246500                       # Layer occupancy (ticks)
system.iobus.respLayer4.utilization               0.0                       # Layer utilization (%)
system.iobus.respLayer6.occupancy              362000                       # Layer occupancy (ticks)
system.iobus.respLayer6.utilization               0.0                       # Layer utilization (%)
system.iobus.respLayer8.occupancy              201000                       # Layer occupancy (ticks)
system.iobus.respLayer8.utilization               0.0                       # Layer utilization (%)
system.pc.south_bridge.ide.disks.dma_read_full_pages            0                       # Number of full page size DMA reads (not PRD).
system.pc.south_bridge.ide.disks.dma_read_bytes            0                       # Number of bytes transfered via DMA reads (not PRD).
system.pc.south_bridge.ide.disks.dma_read_txs            0                       # Number of DMA read transactions (not PRD).
system.pc.south_bridge.ide.disks.dma_write_full_pages           33                       # Number of full page size DMA writes.
system.pc.south_bridge.ide.disks.dma_write_bytes       135168                       # Number of bytes transfered via DMA writes.
system.pc.south_bridge.ide.disks.dma_write_txs           33                       # Number of DMA write transactions.
system.ruby.clk_domain.clock                      500                       # Clock period in ticks
system.ruby.delayHist::bucket_size                  4                       # delay histogram for all message
system.ruby.delayHist::max_bucket                  39                       # delay histogram for all message
system.ruby.delayHist::samples                 678911                       # delay histogram for all message
system.ruby.delayHist::mean                  0.380901                       # delay histogram for all message
system.ruby.delayHist::stdev                 1.706917                       # delay histogram for all message
system.ruby.delayHist                    |      646905     95.29%     95.29% |         327      0.05%     95.33% |       31561      4.65%     99.98% |          26      0.00%     99.99% |          75      0.01%    100.00% |           3      0.00%    100.00% |          11      0.00%    100.00% |           3      0.00%    100.00% |           0      0.00%    100.00% |           0      0.00%    100.00% # delay histogram for all message
system.ruby.delayHist::total                   678911                       # delay histogram for all message
system.ruby.outstanding_req_hist_seqr::bucket_size            1                      
system.ruby.outstanding_req_hist_seqr::max_bucket            9                      
system.ruby.outstanding_req_hist_seqr::samples    461990509                      
system.ruby.outstanding_req_hist_seqr::mean     1.000000                      
system.ruby.outstanding_req_hist_seqr::gmean     1.000000                      
system.ruby.outstanding_req_hist_seqr::stdev     0.000646                      
system.ruby.outstanding_req_hist_seqr    |           0      0.00%      0.00% |   461990316    100.00%    100.00% |         193      0.00%    100.00% |           0      0.00%    100.00% |           0      0.00%    100.00% |           0      0.00%    100.00% |           0      0.00%    100.00% |           0      0.00%    100.00% |           0      0.00%    100.00% |           0      0.00%    100.00%
system.ruby.outstanding_req_hist_seqr::total    461990509                      
system.ruby.latency_hist_seqr::bucket_size          128                      
system.ruby.latency_hist_seqr::max_bucket         1279                      
system.ruby.latency_hist_seqr::samples      461990509                      
system.ruby.latency_hist_seqr::mean          1.007648                      
system.ruby.latency_hist_seqr::gmean         1.001026                      
system.ruby.latency_hist_seqr::stdev         0.645862                      
system.ruby.latency_hist_seqr            |   461987592    100.00%    100.00% |        2781      0.00%    100.00% |          25      0.00%    100.00% |          36      0.00%    100.00% |          57      0.00%    100.00% |          18      0.00%    100.00% |           0      0.00%    100.00% |           0      0.00%    100.00% |           0      0.00%    100.00% |           0      0.00%    100.00%
system.ruby.latency_hist_seqr::total        461990509                      
system.ruby.hit_latency_hist_seqr::bucket_size            1                      
system.ruby.hit_latency_hist_seqr::max_bucket            9                      
system.ruby.hit_latency_hist_seqr::samples    461831295                      
system.ruby.hit_latency_hist_seqr::mean             1                      
system.ruby.hit_latency_hist_seqr::gmean            1                      
[...]
system.ruby.Directory_Controller.IM.Memory_Data        42452      0.00%      0.00%
system.ruby.Directory_Controller.MI.Memory_Ack        13669      0.00%      0.00%
system.ruby.Directory_Controller.M_DRD.Data            6      0.00%      0.00%
system.ruby.Directory_Controller.M_DRDI.Memory_Ack            6      0.00%      0.00%
system.ruby.DMA_Controller.ReadRequest   |          30    100.00%    100.00% |           0      0.00%    100.00%
system.ruby.DMA_Controller.ReadRequest::total           30                      
system.ruby.DMA_Controller.WriteRequest  |        2240    100.00%    100.00% |           0      0.00%    100.00%
system.ruby.DMA_Controller.WriteRequest::total         2240                      
system.ruby.DMA_Controller.Data          |          30    100.00%    100.00% |           0      0.00%    100.00%
system.ruby.DMA_Controller.Data::total             30                      
system.ruby.DMA_Controller.Ack           |        2240    100.00%    100.00% |           0      0.00%    100.00%
system.ruby.DMA_Controller.Ack::total            2240                      
system.ruby.DMA_Controller.READY.ReadRequest |          30    100.00%    100.00% |           0      0.00%    100.00%
system.ruby.DMA_Controller.READY.ReadRequest::total           30                      
system.ruby.DMA_Controller.READY.WriteRequest |        2240    100.00%    100.00% |           0      0.00%    100.00%
system.ruby.DMA_Controller.READY.WriteRequest::total         2240                      
system.ruby.DMA_Controller.BUSY_RD.Data  |          30    100.00%    100.00% |           0      0.00%    100.00%
system.ruby.DMA_Controller.BUSY_RD.Data::total           30                      
system.ruby.DMA_Controller.BUSY_WR.Ack   |        2240    100.00%    100.00% |           0      0.00%    100.00%
system.ruby.DMA_Controller.BUSY_WR.Ack::total         2240                      
system.ruby.L1Cache_Controller.Load      |      542683      0.80%      0.80% |    63321218     93.17%     93.97% |      552933      0.81%     94.78% |     3545861      5.22%    100.00%
system.ruby.L1Cache_Controller.Load::total     67962695                      
system.ruby.L1Cache_Controller.Ifetch    |     2955613      0.73%      0.73% |   377210934     93.58%     94.31% |     2919618      0.72%     95.04% |    20006815      4.96%    100.00%
system.ruby.L1Cache_Controller.Ifetch::total    403092980                      
system.ruby.L1Cache_Controller.Store     |      440430      1.77%      1.77% |    21542663     86.39%     88.16% |      416942      1.67%     89.83% |     2536162     10.17%    100.00%
system.ruby.L1Cache_Controller.Store::total     24936197                      
system.ruby.L1Cache_Controller.Inv       |        5108     19.62%     19.62% |        7243     27.82%     47.44% |        6552     25.17%     72.61% |        7131     27.39%    100.00%
system.ruby.L1Cache_Controller.Inv::total        26034                      
system.ruby.L1Cache_Controller.L1_Replacement |       48587     13.54%     13.54% |      141528     39.45%     53.00% |       51968     14.49%     67.49% |      116627     32.51%    100.00%
system.ruby.L1Cache_Controller.L1_Replacement::total       358710                      
system.ruby.L1Cache_Controller.Fwd_GETX  |        1636     29.62%     29.62% |        1732     31.35%     60.97% |         699     12.65%     73.62% |        1457     26.38%    100.00%
system.ruby.L1Cache_Controller.Fwd_GETX::total         5524                      
system.ruby.L1Cache_Controller.Fwd_GETS  |        3158     28.60%     28.60% |        2937     26.60%     55.19% |        2162     19.58%     74.77% |        2786     25.23%    100.00%
system.ruby.L1Cache_Controller.Fwd_GETS::total        11043                      
system.ruby.L1Cache_Controller.Data      |         234     21.95%     21.95% |         210     19.70%     41.65% |         343     32.18%     73.83% |         279     26.17%    100.00%
system.ruby.L1Cache_Controller.Data::total         1066                      
system.ruby.L1Cache_Controller.Data_Exclusive |       13451     10.83%     10.83% |       83278     67.04%     77.87% |       12102      9.74%     87.61% |       15390     12.39%    100.00%
system.ruby.L1Cache_Controller.Data_Exclusive::total       124221                      
system.ruby.L1Cache_Controller.DataS_fromL1 |        2391     21.65%     21.65% |        2750     24.90%     46.55% |        2764     25.03%     71.58% |        3138     28.42%    100.00%
system.ruby.L1Cache_Controller.DataS_fromL1::total        11043                      
system.ruby.L1Cache_Controller.Data_all_Acks |       34485     15.06%     15.06% |       56502     24.68%     39.75% |       38997     17.04%     56.78% |       98929     43.22%    100.00%
system.ruby.L1Cache_Controller.Data_all_Acks::total       228913                      
system.ruby.L1Cache_Controller.Ack       |        4523     38.79%     38.79% |        2657     22.79%     61.57% |        2320     19.90%     81.47% |        2161     18.53%    100.00%
system.ruby.L1Cache_Controller.Ack::total        11661                      
system.ruby.L1Cache_Controller.Ack_all   |        2817     30.94%     30.94% |        2166     23.79%     54.73% |        2078     22.82%     77.55% |        2044     22.45%    100.00%
system.ruby.L1Cache_Controller.Ack_all::total         9105                      
system.ruby.L1Cache_Controller.WB_Ack    |       19254     11.17%     11.17% |      107584     62.39%     73.55% |       18220     10.57%     84.12% |       27391     15.88%    100.00%
system.ruby.L1Cache_Controller.WB_Ack::total       172449                      
system.ruby.L1Cache_Controller.NP.Load   |       18173     12.41%     12.41% |       90069     61.49%     73.90% |       17300     11.81%     85.71% |       20924     14.29%    100.00%
system.ruby.L1Cache_Controller.NP.Load::total       146466                      
system.ruby.L1Cache_Controller.NP.Ifetch |       22847     14.65%     14.65% |       24508     15.71%     30.35% |       26689     17.11%     47.46% |       81960     52.54%    100.00%
system.ruby.L1Cache_Controller.NP.Ifetch::total       156004                      
system.ruby.L1Cache_Controller.NP.Store  |        9011     15.37%     15.37% |       26951     45.98%     61.36% |        8904     15.19%     76.55% |       13744     23.45%    100.00%
system.ruby.L1Cache_Controller.NP.Store::total        58610                      
system.ruby.L1Cache_Controller.NP.Inv    |        2551     19.95%     19.95% |        3701     28.95%     48.90% |        2979     23.30%     72.20% |        3554     27.80%    100.00%
system.ruby.L1Cache_Controller.NP.Inv::total        12785                      
system.ruby.L1Cache_Controller.I.Load    |         363     10.52%     10.52% |         976     28.30%     38.82% |        1127     32.68%     71.50% |         983     28.50%    100.00%
system.ruby.L1Cache_Controller.I.Load::total         3449                      
system.ruby.L1Cache_Controller.I.Ifetch  |          10     28.57%     28.57% |          11     31.43%     60.00% |          11     31.43%     91.43% |           3      8.57%    100.00%
system.ruby.L1Cache_Controller.I.Ifetch::total           35                      
system.ruby.L1Cache_Controller.I.Store   |         158     23.24%     23.24% |         225     33.09%     56.32% |         175     25.74%     82.06% |         122     17.94%    100.00%
system.ruby.L1Cache_Controller.I.Store::total          680                      
system.ruby.L1Cache_Controller.I.L1_Replacement |        2908     22.23%     22.23% |        3777     28.88%     51.11% |        3307     25.28%     76.39% |        3088     23.61%    100.00%
system.ruby.L1Cache_Controller.I.L1_Replacement::total        13080                      
system.ruby.L1Cache_Controller.S.Load    |       69990      0.47%      0.47% |    14688812     98.07%     98.54% |       81937      0.55%     99.09% |      136975      0.91%    100.00%
system.ruby.L1Cache_Controller.S.Load::total     14977714                      
system.ruby.L1Cache_Controller.S.Ifetch  |     2932755      0.73%      0.73% |   377186413     93.61%     94.34% |     2892917      0.72%     95.06% |    19924852      4.94%    100.00%
system.ruby.L1Cache_Controller.S.Ifetch::total    402936937                      
system.ruby.L1Cache_Controller.S.Store   |        2583     32.13%     32.13% |        1956     24.33%     56.46% |        1735     21.58%     78.04% |        1765     21.96%    100.00%
system.ruby.L1Cache_Controller.S.Store::total         8039                      
system.ruby.L1Cache_Controller.S.Inv     |        2093     18.51%     18.51% |        3061     27.07%     45.57% |        3023     26.73%     72.31% |        3132     27.69%    100.00%
system.ruby.L1Cache_Controller.S.Inv::total        11309                      
system.ruby.L1Cache_Controller.S.L1_Replacement |       26425     15.26%     15.26% |       30167     17.42%     32.68% |       30441     17.58%     50.26% |       86148     49.74%    100.00%
system.ruby.L1Cache_Controller.S.L1_Replacement::total       173181                      
system.ruby.L1Cache_Controller.E.Load    |      120407      0.49%      0.49% |    23923226     97.98%     98.47% |      105221      0.43%     98.90% |      268673      1.10%    100.00%
system.ruby.L1Cache_Controller.E.Load::total     24417527                      
system.ruby.L1Cache_Controller.E.Store   |        4966     31.66%     31.66% |        3094     19.73%     51.39% |        3551     22.64%     74.03% |        4074     25.97%    100.00%
system.ruby.L1Cache_Controller.E.Store::total        15685                      
system.ruby.L1Cache_Controller.E.Inv     |          89     18.58%     18.58% |         150     31.32%     49.90% |         122     25.47%     75.37% |         118     24.63%    100.00%
system.ruby.L1Cache_Controller.E.Inv::total          479                      
system.ruby.L1Cache_Controller.E.L1_Replacement |        6387      6.24%      6.24% |       78897     77.05%     83.29% |        6755      6.60%     89.89% |       10354     10.11%    100.00%
system.ruby.L1Cache_Controller.E.L1_Replacement::total       102393                      
system.ruby.L1Cache_Controller.E.Fwd_GETX |         765     37.26%     37.26% |         477     23.23%     60.50% |         178      8.67%     69.17% |         633     30.83%    100.00%
system.ruby.L1Cache_Controller.E.Fwd_GETX::total         2053                      
system.ruby.L1Cache_Controller.E.Fwd_GETS |        1222     33.03%     33.03% |         775     20.95%     53.97% |         808     21.84%     75.81% |         895     24.19%    100.00%
system.ruby.L1Cache_Controller.E.Fwd_GETS::total         3700                      
system.ruby.L1Cache_Controller.M.Load    |      333750      1.17%      1.17% |    24618135     86.63%     87.80% |      347348      1.22%     89.03% |     3118306     10.97%    100.00%
system.ruby.L1Cache_Controller.M.Load::total     28417539                      
system.ruby.L1Cache_Controller.M.Store   |      423712      1.70%      1.70% |    21510437     86.55%     88.25% |      402577      1.62%     89.87% |     2516457     10.13%    100.00%
system.ruby.L1Cache_Controller.M.Store::total     24853183                      
system.ruby.L1Cache_Controller.M.Inv     |         375     25.67%     25.67% |         331     22.66%     48.32% |         428     29.30%     77.62% |         327     22.38%    100.00%
system.ruby.L1Cache_Controller.M.Inv::total         1461                      
system.ruby.L1Cache_Controller.M.L1_Replacement |       12867     18.37%     18.37% |       28687     40.95%     59.32% |       11465     16.37%     75.68% |       17037     24.32%    100.00%
system.ruby.L1Cache_Controller.M.L1_Replacement::total        70056                      
system.ruby.L1Cache_Controller.M.Fwd_GETX |         871     25.09%     25.09% |        1255     36.16%     61.25% |         521     15.01%     76.26% |         824     23.74%    100.00%
system.ruby.L1Cache_Controller.M.Fwd_GETX::total         3471                      
system.ruby.L1Cache_Controller.M.Fwd_GETS |        1936     26.37%     26.37% |        2162     29.44%     55.81% |        1354     18.44%     74.25% |        1891     25.75%    100.00%
system.ruby.L1Cache_Controller.M.Fwd_GETS::total         7343                      
system.ruby.L1Cache_Controller.IS.Data_Exclusive |       13451     10.83%     10.83% |       83278     67.04%     77.87% |       12102      9.74%     87.61% |       15390     12.39%    100.00%
system.ruby.L1Cache_Controller.IS.Data_Exclusive::total       124221                      
system.ruby.L1Cache_Controller.IS.DataS_fromL1 |        2391     21.65%     21.65% |        2750     24.90%     46.55% |        2764     25.03%     71.58% |        3138     28.42%    100.00%
system.ruby.L1Cache_Controller.IS.DataS_fromL1::total        11043                      
system.ruby.L1Cache_Controller.IS.Data_all_Acks |       25551     14.97%     14.97% |       29536     17.30%     32.27% |       30261     17.73%     50.00% |       85342     50.00%    100.00%
system.ruby.L1Cache_Controller.IS.Data_all_Acks::total       170690                      
system.ruby.L1Cache_Controller.IM.Data   |         234     21.95%     21.95% |         210     19.70%     41.65% |         343     32.18%     73.83% |         279     26.17%    100.00%
system.ruby.L1Cache_Controller.IM.Data::total         1066                      
system.ruby.L1Cache_Controller.IM.Data_all_Acks |        8934     15.34%     15.34% |       26966     46.32%     61.66% |        8736     15.00%     76.66% |       13587     23.34%    100.00%
system.ruby.L1Cache_Controller.IM.Data_all_Acks::total        58223                      
system.ruby.L1Cache_Controller.SM.Ack    |        4523     38.79%     38.79% |        2657     22.79%     61.57% |        2320     19.90%     81.47% |        2161     18.53%    100.00%
system.ruby.L1Cache_Controller.SM.Ack::total        11661                      
system.ruby.L1Cache_Controller.SM.Ack_all |        2817     30.94%     30.94% |        2166     23.79%     54.73% |        2078     22.82%     77.55% |        2044     22.45%    100.00%
system.ruby.L1Cache_Controller.SM.Ack_all::total         9105                      
system.ruby.L1Cache_Controller.M_I.Ifetch |           1     25.00%     25.00% |           2     50.00%     75.00% |           1     25.00%    100.00% |           0      0.00%    100.00%
system.ruby.L1Cache_Controller.M_I.Ifetch::total            4                      
system.ruby.L1Cache_Controller.M_I.WB_Ack |       19254     11.17%     11.17% |      107584     62.39%     73.55% |       18220     10.57%     84.12% |       27391     15.88%    100.00%
system.ruby.L1Cache_Controller.M_I.WB_Ack::total       172449                      
system.ruby.L2Cache_Controller.L1_GET_INSTR       156039      0.00%      0.00%
system.ruby.L2Cache_Controller.L1_GETS         149959      0.00%      0.00%
system.ruby.L2Cache_Controller.L1_GETX          59293      0.00%      0.00%
system.ruby.L2Cache_Controller.L1_UPGRADE         8039      0.00%      0.00%
system.ruby.L2Cache_Controller.L1_PUTX         172449      0.00%      0.00%
system.ruby.L2Cache_Controller.L2_Replacement        12685      0.00%      0.00%
system.ruby.L2Cache_Controller.L2_Replacement_clean        12926      0.00%      0.00%
system.ruby.L2Cache_Controller.Mem_Data         42452      0.00%      0.00%
system.ruby.L2Cache_Controller.Mem_Ack          25617      0.00%      0.00%
system.ruby.L2Cache_Controller.WB_Data           8804      0.00%      0.00%
system.ruby.L2Cache_Controller.WB_Data_clean         3700      0.00%      0.00%
system.ruby.L2Cache_Controller.Ack               5773      0.00%      0.00%
system.ruby.L2Cache_Controller.Ack_all           6073      0.00%      0.00%
system.ruby.L2Cache_Controller.Unblock          11043      0.00%      0.00%
system.ruby.L2Cache_Controller.Exclusive_Unblock       191549      0.00%      0.00%
system.ruby.L2Cache_Controller.MEM_Inv             12      0.00%      0.00%
system.ruby.L2Cache_Controller.NP.L1_GET_INSTR         6844      0.00%      0.00%
system.ruby.L2Cache_Controller.NP.L1_GETS        19107      0.00%      0.00%
system.ruby.L2Cache_Controller.NP.L1_GETX        16502      0.00%      0.00%
system.ruby.L2Cache_Controller.SS.L1_GET_INSTR       149183      0.00%      0.00%
system.ruby.L2Cache_Controller.SS.L1_GETS        14619      0.00%      0.00%
system.ruby.L2Cache_Controller.SS.L1_GETX         1066      0.00%      0.00%
system.ruby.L2Cache_Controller.SS.L1_UPGRADE         8039      0.00%      0.00%
system.ruby.L2Cache_Controller.SS.L2_Replacement          336      0.00%      0.00%
system.ruby.L2Cache_Controller.SS.L2_Replacement_clean         5258      0.00%      0.00%
system.ruby.L2Cache_Controller.M.L1_GET_INSTR           12      0.00%      0.00%
system.ruby.L2Cache_Controller.M.L1_GETS       105130      0.00%      0.00%
system.ruby.L2Cache_Controller.M.L1_GETX        36198      0.00%      0.00%
system.ruby.L2Cache_Controller.M.L2_Replacement        11705      0.00%      0.00%
system.ruby.L2Cache_Controller.M.L2_Replacement_clean         6378      0.00%      0.00%
system.ruby.L2Cache_Controller.MT.L1_GETS        11043      0.00%      0.00%
system.ruby.L2Cache_Controller.MT.L1_GETX         5524      0.00%      0.00%
system.ruby.L2Cache_Controller.MT.L1_PUTX       172449      0.00%      0.00%
system.ruby.L2Cache_Controller.MT.L2_Replacement          644      0.00%      0.00%
system.ruby.L2Cache_Controller.MT.L2_Replacement_clean         1290      0.00%      0.00%
system.ruby.L2Cache_Controller.MT.MEM_Inv            6      0.00%      0.00%
system.ruby.L2Cache_Controller.M_I.Mem_Ack        25617      0.00%      0.00%
system.ruby.L2Cache_Controller.MT_I.WB_Data          477      0.00%      0.00%
system.ruby.L2Cache_Controller.MT_I.Ack_all          173      0.00%      0.00%
system.ruby.L2Cache_Controller.MT_I.MEM_Inv            6      0.00%      0.00%
system.ruby.L2Cache_Controller.MCT_I.WB_Data          984      0.00%      0.00%
system.ruby.L2Cache_Controller.MCT_I.Ack_all          306      0.00%      0.00%
system.ruby.L2Cache_Controller.I_I.Ack           5381      0.00%      0.00%
system.ruby.L2Cache_Controller.I_I.Ack_all         5258      0.00%      0.00%
system.ruby.L2Cache_Controller.S_I.Ack            392      0.00%      0.00%
system.ruby.L2Cache_Controller.S_I.Ack_all          336      0.00%      0.00%
system.ruby.L2Cache_Controller.ISS.L1_GETS           16      0.00%      0.00%
system.ruby.L2Cache_Controller.ISS.Mem_Data        19091      0.00%      0.00%
system.ruby.L2Cache_Controller.IS.Mem_Data         6860      0.00%      0.00%
system.ruby.L2Cache_Controller.IM.Mem_Data        16501      0.00%      0.00%
system.ruby.L2Cache_Controller.SS_MB.L1_GETS           32      0.00%      0.00%
system.ruby.L2Cache_Controller.SS_MB.Exclusive_Unblock         9105      0.00%      0.00%
system.ruby.L2Cache_Controller.MT_MB.L1_GETS           10      0.00%      0.00%
system.ruby.L2Cache_Controller.MT_MB.L1_GETX            2      0.00%      0.00%
system.ruby.L2Cache_Controller.MT_MB.Exclusive_Unblock       182444      0.00%      0.00%
system.ruby.L2Cache_Controller.MT_IIB.L1_GETS            2      0.00%      0.00%
system.ruby.L2Cache_Controller.MT_IIB.L1_GETX            1      0.00%      0.00%
system.ruby.L2Cache_Controller.MT_IIB.WB_Data         7329      0.00%      0.00%
system.ruby.L2Cache_Controller.MT_IIB.WB_Data_clean         3694      0.00%      0.00%
system.ruby.L2Cache_Controller.MT_IIB.Unblock           20      0.00%      0.00%
system.ruby.L2Cache_Controller.MT_IB.WB_Data           14      0.00%      0.00%
system.ruby.L2Cache_Controller.MT_IB.WB_Data_clean            6      0.00%      0.00%
system.ruby.L2Cache_Controller.MT_SB.Unblock        11023      0.00%      0.00%

---------- End Simulation Statistics   ----------
