
---------- Begin Simulation Statistics ----------
sim_seconds                                  2.906283                       # Number of seconds simulated
sim_ticks                                2906282687000                       # Number of ticks simulated
final_tick                               55811139495001                       # Number of ticks from beginning of simulation (restored from checkpoints and never reset)
sim_freq                                 1000000000000                       # Frequency of simulated ticks
host_inst_rate                                 141084                       # Simulator instruction rate (inst/s)
host_op_rate                                   236456                       # Simulator op (including micro ops) rate (op/s)
host_tick_rate                              267373681                       # Simulator tick rate (ticks/s)
host_mem_usage                                1845020                       # Number of bytes of host memory used
host_seconds                                 10869.74                       # Real time elapsed on the host
sim_insts                                  1533542558                       # Number of instructions simulated
sim_ops                                    2570213288                       # Number of ops (including micro ops) simulated
system.voltage_domain.voltage                       1                       # Voltage in Volts
system.clk_domain.clock                          1000                       # Clock period in ticks
system.mem_ctrls.bytes_read::ruby.dir_cntrl0     10302784                       # Number of bytes read from this memory
system.mem_ctrls.bytes_read::total           10302784                       # Number of bytes read from this memory
system.mem_ctrls.bytes_written::ruby.dir_cntrl0      1233856                       # Number of bytes written to this memory
system.mem_ctrls.bytes_written::total         1233856                       # Number of bytes written to this memory
system.mem_ctrls.num_reads::ruby.dir_cntrl0       160981                       # Number of read requests responded to by this memory
system.mem_ctrls.num_reads::total              160981                       # Number of read requests responded to by this memory
system.mem_ctrls.num_writes::ruby.dir_cntrl0        19279                       # Number of write requests responded to by this memory
system.mem_ctrls.num_writes::total              19279                       # Number of write requests responded to by this memory
system.mem_ctrls.bw_read::ruby.dir_cntrl0      3545004                       # Total read bandwidth from this memory (bytes/s)
system.mem_ctrls.bw_read::total               3545004                       # Total read bandwidth from this memory (bytes/s)
system.mem_ctrls.bw_write::ruby.dir_cntrl0       424548                       # Write bandwidth from this memory (bytes/s)
system.mem_ctrls.bw_write::total               424548                       # Write bandwidth from this memory (bytes/s)
system.mem_ctrls.bw_total::ruby.dir_cntrl0      3969552                       # Total bandwidth to/from this memory (bytes/s)
system.mem_ctrls.bw_total::total              3969552                       # Total bandwidth to/from this memory (bytes/s)
system.mem_ctrls.readReqs                      160981                       # Number of read requests accepted
system.mem_ctrls.writeReqs                      19279                       # Number of write requests accepted
system.mem_ctrls.readBursts                    160981                       # Number of DRAM read bursts, including those serviced by the write queue
system.mem_ctrls.writeBursts                    19279                       # Number of DRAM write bursts, including those merged in the write queue
system.mem_ctrls.bytesReadDRAM               10222848                       # Total number of bytes read from DRAM
system.mem_ctrls.bytesReadWrQ                   79936                       # Total number of bytes read from write queue
system.mem_ctrls.bytesWritten                 1225984                       # Total number of bytes written to DRAM
system.mem_ctrls.bytesReadSys                10302784                       # Total read bytes from the system interface side
system.mem_ctrls.bytesWrittenSys              1233856                       # Total written bytes from the system interface side
system.mem_ctrls.servicedByWrQ                   1249                       # Number of DRAM read bursts serviced by the write queue
system.mem_ctrls.mergedWrBursts                   122                       # Number of DRAM write bursts merged with an existing one
system.mem_ctrls.neitherReadNorWriteReqs            0                       # Number of requests that are neither read nor write
system.mem_ctrls.perBankRdBursts::0              9899                       # Per bank write bursts
system.mem_ctrls.perBankRdBursts::1             10178                       # Per bank write bursts
system.mem_ctrls.perBankRdBursts::2              9762                       # Per bank write bursts
system.mem_ctrls.perBankRdBursts::3              9441                       # Per bank write bursts
system.mem_ctrls.perBankRdBursts::4             11131                       # Per bank write bursts
system.mem_ctrls.perBankRdBursts::5             10405                       # Per bank write bursts
system.mem_ctrls.perBankRdBursts::6             10705                       # Per bank write bursts
system.mem_ctrls.perBankRdBursts::7             11042                       # Per bank write bursts
system.mem_ctrls.perBankRdBursts::8              9906                       # Per bank write bursts
system.mem_ctrls.perBankRdBursts::9             10666                       # Per bank write bursts
system.mem_ctrls.perBankRdBursts::10             9486                       # Per bank write bursts
system.mem_ctrls.perBankRdBursts::11             9124                       # Per bank write bursts
system.mem_ctrls.perBankRdBursts::12             9027                       # Per bank write bursts
system.mem_ctrls.perBankRdBursts::13             8862                       # Per bank write bursts
system.mem_ctrls.perBankRdBursts::14            10354                       # Per bank write bursts
system.mem_ctrls.perBankRdBursts::15             9744                       # Per bank write bursts
system.mem_ctrls.perBankWrBursts::0              1264                       # Per bank write bursts
system.mem_ctrls.perBankWrBursts::1              1557                       # Per bank write bursts
system.mem_ctrls.perBankWrBursts::2              1413                       # Per bank write bursts
system.mem_ctrls.perBankWrBursts::3               878                       # Per bank write bursts
system.mem_ctrls.perBankWrBursts::4              1236                       # Per bank write bursts
system.mem_ctrls.perBankWrBursts::5              1366                       # Per bank write bursts
system.mem_ctrls.perBankWrBursts::6              1343                       # Per bank write bursts
system.mem_ctrls.perBankWrBursts::7              1337                       # Per bank write bursts
system.mem_ctrls.perBankWrBursts::8               966                       # Per bank write bursts
system.mem_ctrls.perBankWrBursts::9              1227                       # Per bank write bursts
system.mem_ctrls.perBankWrBursts::10              812                       # Per bank write bursts
system.mem_ctrls.perBankWrBursts::11              784                       # Per bank write bursts
system.mem_ctrls.perBankWrBursts::12             1058                       # Per bank write bursts
system.mem_ctrls.perBankWrBursts::13              933                       # Per bank write bursts
system.mem_ctrls.perBankWrBursts::14             1626                       # Per bank write bursts
system.mem_ctrls.perBankWrBursts::15             1356                       # Per bank write bursts
system.mem_ctrls.numRdRetry                         0                       # Number of times read queue was full causing retry
system.mem_ctrls.numWrRetry                         0                       # Number of times write queue was full causing retry
system.mem_ctrls.totGap                  2906282800000                       # Total gap between requests
system.mem_ctrls.readPktSize::0                     0                       # Read request sizes (log2)
system.mem_ctrls.readPktSize::1                     0                       # Read request sizes (log2)
system.mem_ctrls.readPktSize::2                     0                       # Read request sizes (log2)
system.mem_ctrls.readPktSize::3                     0                       # Read request sizes (log2)
system.mem_ctrls.readPktSize::4                     0                       # Read request sizes (log2)
system.mem_ctrls.readPktSize::5                     0                       # Read request sizes (log2)
system.mem_ctrls.readPktSize::6                160981                       # Read request sizes (log2)
system.mem_ctrls.writePktSize::0                    0                       # Write request sizes (log2)
system.mem_ctrls.writePktSize::1                    0                       # Write request sizes (log2)
system.mem_ctrls.writePktSize::2                    0                       # Write request sizes (log2)
system.mem_ctrls.writePktSize::3                    0                       # Write request sizes (log2)
system.mem_ctrls.writePktSize::4                    0                       # Write request sizes (log2)
system.mem_ctrls.writePktSize::5                    0                       # Write request sizes (log2)
system.mem_ctrls.writePktSize::6                19279                       # Write request sizes (log2)
system.mem_ctrls.rdQLenPdf::0                  157929                       # What read queue length does an incoming req see
system.mem_ctrls.rdQLenPdf::1                    1787                       # What read queue length does an incoming req see
system.mem_ctrls.rdQLenPdf::2                      16                       # What read queue length does an incoming req see
system.mem_ctrls.rdQLenPdf::3                       0                       # What read queue length does an incoming req see
system.mem_ctrls.rdQLenPdf::4                       0                       # What read queue length does an incoming req see
system.mem_ctrls.rdQLenPdf::5                       0                       # What read queue length does an incoming req see
system.mem_ctrls.rdQLenPdf::6                       0                       # What read queue length does an incoming req see
system.mem_ctrls.rdQLenPdf::7                       0                       # What read queue length does an incoming req see
system.mem_ctrls.rdQLenPdf::8                       0                       # What read queue length does an incoming req see
system.mem_ctrls.rdQLenPdf::9                       0                       # What read queue length does an incoming req see
system.mem_ctrls.rdQLenPdf::10                      0                       # What read queue length does an incoming req see
system.mem_ctrls.rdQLenPdf::11                      0                       # What read queue length does an incoming req see
system.mem_ctrls.rdQLenPdf::12                      0                       # What read queue length does an incoming req see
system.mem_ctrls.rdQLenPdf::13                      0                       # What read queue length does an incoming req see
system.mem_ctrls.rdQLenPdf::14                      0                       # What read queue length does an incoming req see
system.mem_ctrls.rdQLenPdf::15                      0                       # What read queue length does an incoming req see
system.mem_ctrls.rdQLenPdf::16                      0                       # What read queue length does an incoming req see
system.mem_ctrls.rdQLenPdf::17                      0                       # What read queue length does an incoming req see
system.mem_ctrls.rdQLenPdf::18                      0                       # What read queue length does an incoming req see
system.mem_ctrls.rdQLenPdf::19                      0                       # What read queue length does an incoming req see
system.mem_ctrls.rdQLenPdf::20                      0                       # What read queue length does an incoming req see
system.mem_ctrls.rdQLenPdf::21                      0                       # What read queue length does an incoming req see
system.mem_ctrls.rdQLenPdf::22                      0                       # What read queue length does an incoming req see
system.mem_ctrls.rdQLenPdf::23                      0                       # What read queue length does an incoming req see
system.mem_ctrls.rdQLenPdf::24                      0                       # What read queue length does an incoming req see
system.mem_ctrls.rdQLenPdf::25                      0                       # What read queue length does an incoming req see
system.mem_ctrls.rdQLenPdf::26                      0                       # What read queue length does an incoming req see
system.mem_ctrls.rdQLenPdf::27                      0                       # What read queue length does an incoming req see
system.mem_ctrls.rdQLenPdf::28                      0                       # What read queue length does an incoming req see
system.mem_ctrls.rdQLenPdf::29                      0                       # What read queue length does an incoming req see
system.mem_ctrls.rdQLenPdf::30                      0                       # What read queue length does an incoming req see
system.mem_ctrls.rdQLenPdf::31                      0                       # What read queue length does an incoming req see
system.mem_ctrls.wrQLenPdf::0                       0                       # What write queue length does an incoming req see
system.mem_ctrls.wrQLenPdf::1                       0                       # What write queue length does an incoming req see
system.mem_ctrls.wrQLenPdf::2                       0                       # What write queue length does an incoming req see
system.mem_ctrls.wrQLenPdf::3                       0                       # What write queue length does an incoming req see
system.mem_ctrls.wrQLenPdf::4                       0                       # What write queue length does an incoming req see
system.mem_ctrls.wrQLenPdf::5                       0                       # What write queue length does an incoming req see
system.mem_ctrls.wrQLenPdf::6                       0                       # What write queue length does an incoming req see
system.mem_ctrls.wrQLenPdf::7                       0                       # What write queue length does an incoming req see
system.mem_ctrls.wrQLenPdf::8                       0                       # What write queue length does an incoming req see
system.mem_ctrls.wrQLenPdf::9                       0                       # What write queue length does an incoming req see
system.mem_ctrls.wrQLenPdf::10                      0                       # What write queue length does an incoming req see
system.mem_ctrls.wrQLenPdf::11                      0                       # What write queue length does an incoming req see
system.mem_ctrls.wrQLenPdf::12                      0                       # What write queue length does an incoming req see
system.mem_ctrls.wrQLenPdf::13                      0                       # What write queue length does an incoming req see
system.mem_ctrls.wrQLenPdf::14                      0                       # What write queue length does an incoming req see
system.mem_ctrls.wrQLenPdf::15                    292                       # What write queue length does an incoming req see
system.mem_ctrls.wrQLenPdf::16                    343                       # What write queue length does an incoming req see
system.mem_ctrls.wrQLenPdf::17                   1115                       # What write queue length does an incoming req see
system.mem_ctrls.wrQLenPdf::18                   1166                       # What write queue length does an incoming req see
system.mem_ctrls.wrQLenPdf::19                   1162                       # What write queue length does an incoming req see
system.mem_ctrls.wrQLenPdf::20                   1204                       # What write queue length does an incoming req see
system.mem_ctrls.wrQLenPdf::21                   1190                       # What write queue length does an incoming req see
system.mem_ctrls.wrQLenPdf::22                   1149                       # What write queue length does an incoming req see
system.mem_ctrls.wrQLenPdf::23                   1186                       # What write queue length does an incoming req see
system.mem_ctrls.wrQLenPdf::24                   1186                       # What write queue length does an incoming req see
system.mem_ctrls.wrQLenPdf::25                   1151                       # What write queue length does an incoming req see
system.mem_ctrls.wrQLenPdf::26                   1160                       # What write queue length does an incoming req see
system.mem_ctrls.wrQLenPdf::27                   1149                       # What write queue length does an incoming req see
system.mem_ctrls.wrQLenPdf::28                   1152                       # What write queue length does an incoming req see
system.mem_ctrls.wrQLenPdf::29                   1125                       # What write queue length does an incoming req see
system.mem_ctrls.wrQLenPdf::30                   1127                       # What write queue length does an incoming req see
system.mem_ctrls.wrQLenPdf::31                   1129                       # What write queue length does an incoming req see
system.mem_ctrls.wrQLenPdf::32                   1117                       # What write queue length does an incoming req see
system.mem_ctrls.wrQLenPdf::33                      9                       # What write queue length does an incoming req see
system.mem_ctrls.wrQLenPdf::34                      8                       # What write queue length does an incoming req see
system.mem_ctrls.wrQLenPdf::35                      6                       # What write queue length does an incoming req see
system.mem_ctrls.wrQLenPdf::36                      7                       # What write queue length does an incoming req see
system.mem_ctrls.wrQLenPdf::37                      6                       # What write queue length does an incoming req see
system.mem_ctrls.wrQLenPdf::38                      4                       # What write queue length does an incoming req see
system.mem_ctrls.wrQLenPdf::39                      3                       # What write queue length does an incoming req see
system.mem_ctrls.wrQLenPdf::40                      4                       # What write queue length does an incoming req see
system.mem_ctrls.wrQLenPdf::41                      3                       # What write queue length does an incoming req see
system.mem_ctrls.wrQLenPdf::42                      2                       # What write queue length does an incoming req see
system.mem_ctrls.wrQLenPdf::43                      1                       # What write queue length does an incoming req see
system.mem_ctrls.wrQLenPdf::44                      1                       # What write queue length does an incoming req see
system.mem_ctrls.wrQLenPdf::45                      0                       # What write queue length does an incoming req see
system.mem_ctrls.wrQLenPdf::46                      0                       # What write queue length does an incoming req see
system.mem_ctrls.wrQLenPdf::47                      0                       # What write queue length does an incoming req see
system.mem_ctrls.wrQLenPdf::48                      0                       # What write queue length does an incoming req see
system.mem_ctrls.wrQLenPdf::49                      0                       # What write queue length does an incoming req see
system.mem_ctrls.wrQLenPdf::50                      0                       # What write queue length does an incoming req see
system.mem_ctrls.wrQLenPdf::51                      0                       # What write queue length does an incoming req see
system.mem_ctrls.wrQLenPdf::52                      0                       # What write queue length does an incoming req see
system.mem_ctrls.wrQLenPdf::53                      0                       # What write queue length does an incoming req see
system.mem_ctrls.wrQLenPdf::54                      0                       # What write queue length does an incoming req see
system.mem_ctrls.wrQLenPdf::55                      0                       # What write queue length does an incoming req see
system.mem_ctrls.wrQLenPdf::56                      0                       # What write queue length does an incoming req see
system.mem_ctrls.wrQLenPdf::57                      0                       # What write queue length does an incoming req see
system.mem_ctrls.wrQLenPdf::58                      0                       # What write queue length does an incoming req see
system.mem_ctrls.wrQLenPdf::59                      0                       # What write queue length does an incoming req see
system.mem_ctrls.wrQLenPdf::60                      0                       # What write queue length does an incoming req see
system.mem_ctrls.wrQLenPdf::61                      0                       # What write queue length does an incoming req see
system.mem_ctrls.wrQLenPdf::62                      0                       # What write queue length does an incoming req see
system.mem_ctrls.wrQLenPdf::63                      0                       # What write queue length does an incoming req see
system.mem_ctrls.bytesPerActivate::samples        42742                       # Bytes accessed per row activation
system.mem_ctrls.bytesPerActivate::mean    267.860559                       # Bytes accessed per row activation
system.mem_ctrls.bytesPerActivate::gmean   143.667769                       # Bytes accessed per row activation
system.mem_ctrls.bytesPerActivate::stdev   339.341570                       # Bytes accessed per row activation
system.mem_ctrls.bytesPerActivate::0-127        22012     51.50%     51.50% # Bytes accessed per row activation
system.mem_ctrls.bytesPerActivate::128-255         9058     21.19%     72.69% # Bytes accessed per row activation
system.mem_ctrls.bytesPerActivate::256-383         2509      5.87%     78.56% # Bytes accessed per row activation
system.mem_ctrls.bytesPerActivate::384-511         1204      2.82%     81.38% # Bytes accessed per row activation
system.mem_ctrls.bytesPerActivate::512-639          730      1.71%     83.09% # Bytes accessed per row activation
system.mem_ctrls.bytesPerActivate::640-767          474      1.11%     84.20% # Bytes accessed per row activation
system.mem_ctrls.bytesPerActivate::768-895          400      0.94%     85.13% # Bytes accessed per row activation
system.mem_ctrls.bytesPerActivate::896-1023          298      0.70%     85.83% # Bytes accessed per row activation
system.mem_ctrls.bytesPerActivate::1024-1151         6057     14.17%    100.00% # Bytes accessed per row activation
system.mem_ctrls.bytesPerActivate::total        42742                       # Bytes accessed per row activation
system.mem_ctrls.rdPerTurnAround::samples         1115                       # Reads before turning the bus around for writes
system.mem_ctrls.rdPerTurnAround::mean     143.718386                       # Reads before turning the bus around for writes
system.mem_ctrls.rdPerTurnAround::stdev   1019.005674                       # Reads before turning the bus around for writes
system.mem_ctrls.rdPerTurnAround::0-1023         1106     99.19%     99.19% # Reads before turning the bus around for writes
system.mem_ctrls.rdPerTurnAround::1024-2047            1      0.09%     99.28% # Reads before turning the bus around for writes
system.mem_ctrls.rdPerTurnAround::2048-3071            1      0.09%     99.37% # Reads before turning the bus around for writes
system.mem_ctrls.rdPerTurnAround::4096-5119            1      0.09%     99.46% # Reads before turning the bus around for writes
system.mem_ctrls.rdPerTurnAround::6144-7167            1      0.09%     99.55% # Reads before turning the bus around for writes
system.mem_ctrls.rdPerTurnAround::8192-9215            3      0.27%     99.82% # Reads before turning the bus around for writes
system.mem_ctrls.rdPerTurnAround::19456-20479            1      0.09%     99.91% # Reads before turning the bus around for writes
system.mem_ctrls.rdPerTurnAround::21504-22527            1      0.09%    100.00% # Reads before turning the bus around for writes
system.mem_ctrls.rdPerTurnAround::total          1115                       # Reads before turning the bus around for writes
system.mem_ctrls.wrPerTurnAround::samples         1115                       # Writes before turning the bus around for reads
system.mem_ctrls.wrPerTurnAround::mean      17.180269                       # Writes before turning the bus around for reads
system.mem_ctrls.wrPerTurnAround::gmean     17.022046                       # Writes before turning the bus around for reads
system.mem_ctrls.wrPerTurnAround::stdev      2.632616                       # Writes before turning the bus around for reads
system.mem_ctrls.wrPerTurnAround::16              802     71.93%     71.93% # Writes before turning the bus around for reads
system.mem_ctrls.wrPerTurnAround::17               12      1.08%     73.00% # Writes before turning the bus around for reads
system.mem_ctrls.wrPerTurnAround::18              180     16.14%     89.15% # Writes before turning the bus around for reads
system.mem_ctrls.wrPerTurnAround::19                2      0.18%     89.33% # Writes before turning the bus around for reads
system.mem_ctrls.wrPerTurnAround::21               38      3.41%     92.74% # Writes before turning the bus around for reads
system.mem_ctrls.wrPerTurnAround::22               10      0.90%     93.63% # Writes before turning the bus around for reads
system.mem_ctrls.wrPerTurnAround::23                7      0.63%     94.26% # Writes before turning the bus around for reads
system.mem_ctrls.wrPerTurnAround::24               30      2.69%     96.95% # Writes before turning the bus around for reads
system.mem_ctrls.wrPerTurnAround::25               10      0.90%     97.85% # Writes before turning the bus around for reads
system.mem_ctrls.wrPerTurnAround::26                1      0.09%     97.94% # Writes before turning the bus around for reads
system.mem_ctrls.wrPerTurnAround::28               19      1.70%     99.64% # Writes before turning the bus around for reads
system.mem_ctrls.wrPerTurnAround::30                1      0.09%     99.73% # Writes before turning the bus around for reads
system.mem_ctrls.wrPerTurnAround::31                1      0.09%     99.82% # Writes before turning the bus around for reads
system.mem_ctrls.wrPerTurnAround::36                1      0.09%     99.91% # Writes before turning the bus around for reads
system.mem_ctrls.wrPerTurnAround::38                1      0.09%    100.00% # Writes before turning the bus around for reads
system.mem_ctrls.wrPerTurnAround::total          1115                       # Writes before turning the bus around for reads
system.mem_ctrls.totQLat                   1007600235                       # Total ticks spent queuing
system.mem_ctrls.totMemAccLat              4002575235                       # Total ticks spent from burst creation until serviced by the DRAM
system.mem_ctrls.totBusLat                  798660000                       # Total ticks spent in databus transfers
system.mem_ctrls.avgQLat                      6308.07                       # Average queueing delay per DRAM burst
system.mem_ctrls.avgBusLat                    5000.00                       # Average bus latency per DRAM burst
system.mem_ctrls.avgMemAccLat                25058.07                       # Average memory access latency per DRAM burst
system.mem_ctrls.avgRdBW                         3.52                       # Average DRAM read bandwidth in MiByte/s
system.mem_ctrls.avgWrBW                         0.42                       # Average achieved write bandwidth in MiByte/s
system.mem_ctrls.avgRdBWSys                      3.55                       # Average system read bandwidth in MiByte/s
system.mem_ctrls.avgWrBWSys                      0.42                       # Average system write bandwidth in MiByte/s
system.mem_ctrls.peakBW                      12800.00                       # Theoretical peak bandwidth in MiByte/s
system.mem_ctrls.busUtil                         0.03                       # Data bus utilization in percentage
system.mem_ctrls.busUtilRead                     0.03                       # Data bus utilization in percentage for reads
system.mem_ctrls.busUtilWrite                    0.00                       # Data bus utilization in percentage for writes
system.mem_ctrls.avgRdQLen                       1.00                       # Average read queue length when enqueuing
system.mem_ctrls.avgWrQLen                      25.12                       # Average write queue length when enqueuing
system.mem_ctrls.readRowHits                   126879                       # Number of row buffer hits during reads
system.mem_ctrls.writeRowHits                    9267                       # Number of row buffer hits during writes
system.mem_ctrls.readRowHitRate                 79.43                       # Row buffer hit rate for reads
system.mem_ctrls.writeRowHitRate                48.37                       # Row buffer hit rate for writes
system.mem_ctrls.avgGap                   16122727.17                       # Average gap between requests
system.mem_ctrls.pageHitRate                    76.11                       # Row buffer hit rate, read and write combined
system.mem_ctrls_0.actEnergy                183231720                       # Energy for activate commands per rank (pJ)
system.mem_ctrls_0.preEnergy                 99977625                       # Energy for precharge commands per rank (pJ)
system.mem_ctrls_0.readEnergy               710876400                       # Energy for read commands per rank (pJ)
system.mem_ctrls_0.writeEnergy               67417920                       # Energy for write commands per rank (pJ)
system.mem_ctrls_0.refreshEnergy         190076334240                       # Energy for refresh commands per rank (pJ)
system.mem_ctrls_0.actBackEnergy          88576035210                       # Energy for active background per rank (pJ)
system.mem_ctrls_0.preBackEnergy         1668387129000                       # Energy for precharge background per rank (pJ)
system.mem_ctrls_0.totalEnergy           1948101002115                       # Total energy per rank (pJ)
system.mem_ctrls_0.averagePower            669.417772                       # Core power per rank (mW)
system.mem_ctrls_0.memoryStateTime::IDLE 2773645688000                       # Time in different power states
system.mem_ctrls_0.memoryStateTime::REF   97047080000                       # Time in different power states
system.mem_ctrls_0.memoryStateTime::PRE_PDN            0                       # Time in different power states
system.mem_ctrls_0.memoryStateTime::ACT   35584246250                       # Time in different power states
system.mem_ctrls_0.memoryStateTime::ACT_PDN            0                       # Time in different power states
system.mem_ctrls_1.actEnergy                170644320                       # Energy for activate commands per rank (pJ)
system.mem_ctrls_1.preEnergy                 93109500                       # Energy for precharge commands per rank (pJ)
system.mem_ctrls_1.readEnergy               665464800                       # Energy for read commands per rank (pJ)
system.mem_ctrls_1.writeEnergy               56816640                       # Energy for write commands per rank (pJ)
system.mem_ctrls_1.refreshEnergy         190076334240                       # Energy for refresh commands per rank (pJ)
system.mem_ctrls_1.actBackEnergy          87925195530                       # Energy for active background per rank (pJ)
system.mem_ctrls_1.preBackEnergy         1668958041000                       # Energy for precharge background per rank (pJ)
system.mem_ctrls_1.totalEnergy           1947945606030                       # Total energy per rank (pJ)
system.mem_ctrls_1.averagePower            669.364374                       # Core power per rank (mW)
system.mem_ctrls_1.memoryStateTime::IDLE 2774945859751                       # Time in different power states
system.mem_ctrls_1.memoryStateTime::REF   97047080000                       # Time in different power states
system.mem_ctrls_1.memoryStateTime::PRE_PDN            0                       # Time in different power states
system.mem_ctrls_1.memoryStateTime::ACT   34287162749                       # Time in different power states
system.mem_ctrls_1.memoryStateTime::ACT_PDN            0                       # Time in different power states
system.cpu_voltage_domain.voltage                   1                       # Voltage in Volts
system.cpu_clk_domain.clock                       500                       # Clock period in ticks
system.cpu0.apic_clk_domain.clock                8000                       # Clock period in ticks
system.cpu0.numCycles                      5812565374                       # number of cpu cycles simulated
system.cpu0.numWorkItemsStarted                     0                       # number of work items this cpu started
system.cpu0.numWorkItemsCompleted                   0                       # number of work items this cpu completed
system.cpu0.kern.inst.arm                           0                       # number of arm instructions executed
system.cpu0.kern.inst.quiesce                       0                       # number of quiesce instructions executed
system.cpu0.committedInsts                 1476270832                       # Number of instructions committed
system.cpu0.committedOps                   2466894433                       # Number of ops (including micro ops) committed
system.cpu0.num_int_alu_accesses           1881774838                       # Number of integer alu accesses
system.cpu0.num_fp_alu_accesses             945947406                       # Number of float alu accesses
system.cpu0.num_func_calls                   34360419                       # number of times a function call or return occured
system.cpu0.num_conditional_control_insts    165766039                       # number of instructions that are conditional controls
system.cpu0.num_int_insts                  1881774838                       # number of integer instructions
system.cpu0.num_fp_insts                    945947406                       # number of float instructions
system.cpu0.num_int_register_reads         3990421997                       # number of times the integer registers were read
system.cpu0.num_int_register_writes        1279473396                       # number of times the integer registers were written
system.cpu0.num_fp_register_reads          1502755341                       # number of times the floating registers were read
system.cpu0.num_fp_register_writes          775539812                       # number of times the floating registers were written
system.cpu0.num_cc_register_reads          1393856386                       # number of times the CC registers were read
system.cpu0.num_cc_register_writes          529007641                       # number of times the CC registers were written
system.cpu0.num_mem_refs                    626055225                       # number of memory refs
system.cpu0.num_load_insts                  465637961                       # Number of load instructions
system.cpu0.num_store_insts                 160417264                       # Number of store instructions
system.cpu0.num_idle_cycles              171596702.001941                       # Number of idle cycles
system.cpu0.num_busy_cycles              5640968671.998059                       # Number of busy cycles
system.cpu0.not_idle_fraction                0.970478                       # Percentage of non-idle cycles
system.cpu0.idle_fraction                    0.029522                       # Percentage of idle cycles
system.cpu0.Branches                        223593049                       # Number of branches fetched
system.cpu0.op_class::No_OpClass              3267035      0.13%      0.13% # Class of executed instruction
system.cpu0.op_class::IntAlu               1423085769     57.69%     57.82% # Class of executed instruction
system.cpu0.op_class::IntMult                 4498980      0.18%     58.00% # Class of executed instruction
system.cpu0.op_class::IntDiv                 18800510      0.76%     58.76% # Class of executed instruction
system.cpu0.op_class::FloatAdd              390176769     15.82%     74.58% # Class of executed instruction
system.cpu0.op_class::FloatCmp                      0      0.00%     74.58% # Class of executed instruction
system.cpu0.op_class::FloatCvt                      0      0.00%     74.58% # Class of executed instruction
system.cpu0.op_class::FloatMult                     0      0.00%     74.58% # Class of executed instruction
system.cpu0.op_class::FloatDiv                1010280      0.04%     74.62% # Class of executed instruction
system.cpu0.op_class::FloatSqrt                     0      0.00%     74.62% # Class of executed instruction
system.cpu0.op_class::SimdAdd                       0      0.00%     74.62% # Class of executed instruction
system.cpu0.op_class::SimdAddAcc                    0      0.00%     74.62% # Class of executed instruction
system.cpu0.op_class::SimdAlu                       0      0.00%     74.62% # Class of executed instruction
system.cpu0.op_class::SimdCmp                       0      0.00%     74.62% # Class of executed instruction
system.cpu0.op_class::SimdCvt                       0      0.00%     74.62% # Class of executed instruction
system.cpu0.op_class::SimdMisc                      0      0.00%     74.62% # Class of executed instruction
system.cpu0.op_class::SimdMult                      0      0.00%     74.62% # Class of executed instruction
system.cpu0.op_class::SimdMultAcc                   0      0.00%     74.62% # Class of executed instruction
system.cpu0.op_class::SimdShift                     0      0.00%     74.62% # Class of executed instruction
system.cpu0.op_class::SimdShiftAcc                  0      0.00%     74.62% # Class of executed instruction
system.cpu0.op_class::SimdSqrt                      0      0.00%     74.62% # Class of executed instruction
system.cpu0.op_class::SimdFloatAdd                  0      0.00%     74.62% # Class of executed instruction
system.cpu0.op_class::SimdFloatAlu                  0      0.00%     74.62% # Class of executed instruction
system.cpu0.op_class::SimdFloatCmp                  0      0.00%     74.62% # Class of executed instruction
system.cpu0.op_class::SimdFloatCvt                  0      0.00%     74.62% # Class of executed instruction
system.cpu0.op_class::SimdFloatDiv                  0      0.00%     74.62% # Class of executed instruction
system.cpu0.op_class::SimdFloatMisc                 0      0.00%     74.62% # Class of executed instruction
system.cpu0.op_class::SimdFloatMult                 0      0.00%     74.62% # Class of executed instruction
system.cpu0.op_class::SimdFloatMultAcc              0      0.00%     74.62% # Class of executed instruction
system.cpu0.op_class::SimdFloatSqrt                 0      0.00%     74.62% # Class of executed instruction
system.cpu0.op_class::MemRead               465637961     18.88%     93.50% # Class of executed instruction
system.cpu0.op_class::MemWrite              160417264      6.50%    100.00% # Class of executed instruction
system.cpu0.op_class::IprAccess                     0      0.00%    100.00% # Class of executed instruction
system.cpu0.op_class::InstPrefetch                  0      0.00%    100.00% # Class of executed instruction
system.cpu0.op_class::total                2466894568                       # Class of executed instruction
system.cpu1.apic_clk_domain.clock                8000                       # Clock period in ticks
system.cpu1.numCycles                      5814330145                       # number of cpu cycles simulated
system.cpu1.numWorkItemsStarted                     0                       # number of work items this cpu started
system.cpu1.numWorkItemsCompleted                   0                       # number of work items this cpu completed
system.cpu1.kern.inst.arm                           0                       # number of arm instructions executed
system.cpu1.kern.inst.quiesce                       0                       # number of quiesce instructions executed
system.cpu1.committedInsts                    4322850                       # Number of instructions committed
system.cpu1.committedOps                      8910459                       # Number of ops (including micro ops) committed
system.cpu1.num_int_alu_accesses              8745708                       # Number of integer alu accesses
system.cpu1.num_fp_alu_accesses                     0                       # Number of float alu accesses
system.cpu1.num_func_calls                     216527                       # number of times a function call or return occured
system.cpu1.num_conditional_control_insts       745750                       # number of instructions that are conditional controls
system.cpu1.num_int_insts                     8745708                       # number of integer instructions
system.cpu1.num_fp_insts                            0                       # number of float instructions
system.cpu1.num_int_register_reads           17238195                       # number of times the integer registers were read
system.cpu1.num_int_register_writes           7210867                       # number of times the integer registers were written
system.cpu1.num_fp_register_reads                   0                       # number of times the floating registers were read
system.cpu1.num_fp_register_writes                  0                       # number of times the floating registers were written
system.cpu1.num_cc_register_reads             5598223                       # number of times the CC registers were read
system.cpu1.num_cc_register_writes            2944197                       # number of times the CC registers were written
system.cpu1.num_mem_refs                      1856769                       # number of memory refs
system.cpu1.num_load_insts                    1191012                       # Number of load instructions
system.cpu1.num_store_insts                    665757                       # Number of store instructions
system.cpu1.num_idle_cycles              5796919967.682474                       # Number of idle cycles
system.cpu1.num_busy_cycles              17410177.317525                       # Number of busy cycles
system.cpu1.not_idle_fraction                0.002994                       # Percentage of non-idle cycles
system.cpu1.idle_fraction                    0.997006                       # Percentage of idle cycles
system.cpu1.Branches                          1031272                       # Number of branches fetched
system.cpu1.op_class::No_OpClass               110537      1.24%      1.24% # Class of executed instruction
system.cpu1.op_class::IntAlu                  6895628     77.39%     78.63% # Class of executed instruction
system.cpu1.op_class::IntMult                   16350      0.18%     78.81% # Class of executed instruction
system.cpu1.op_class::IntDiv                    31178      0.35%     79.16% # Class of executed instruction
system.cpu1.op_class::FloatAdd                      0      0.00%     79.16% # Class of executed instruction
system.cpu1.op_class::FloatCmp                      0      0.00%     79.16% # Class of executed instruction
system.cpu1.op_class::FloatCvt                      0      0.00%     79.16% # Class of executed instruction
system.cpu1.op_class::FloatMult                     0      0.00%     79.16% # Class of executed instruction
system.cpu1.op_class::FloatDiv                      0      0.00%     79.16% # Class of executed instruction
system.cpu1.op_class::FloatSqrt                     0      0.00%     79.16% # Class of executed instruction
system.cpu1.op_class::SimdAdd                       0      0.00%     79.16% # Class of executed instruction
system.cpu1.op_class::SimdAddAcc                    0      0.00%     79.16% # Class of executed instruction
system.cpu1.op_class::SimdAlu                       0      0.00%     79.16% # Class of executed instruction
system.cpu1.op_class::SimdCmp                       0      0.00%     79.16% # Class of executed instruction
system.cpu1.op_class::SimdCvt                       0      0.00%     79.16% # Class of executed instruction
system.cpu1.op_class::SimdMisc                      0      0.00%     79.16% # Class of executed instruction
system.cpu1.op_class::SimdMult                      0      0.00%     79.16% # Class of executed instruction
system.cpu1.op_class::SimdMultAcc                   0      0.00%     79.16% # Class of executed instruction
system.cpu1.op_class::SimdShift                     0      0.00%     79.16% # Class of executed instruction
system.cpu1.op_class::SimdShiftAcc                  0      0.00%     79.16% # Class of executed instruction
system.cpu1.op_class::SimdSqrt                      0      0.00%     79.16% # Class of executed instruction
system.cpu1.op_class::SimdFloatAdd                  0      0.00%     79.16% # Class of executed instruction
system.cpu1.op_class::SimdFloatAlu                  0      0.00%     79.16% # Class of executed instruction
system.cpu1.op_class::SimdFloatCmp                  0      0.00%     79.16% # Class of executed instruction
system.cpu1.op_class::SimdFloatCvt                  0      0.00%     79.16% # Class of executed instruction
system.cpu1.op_class::SimdFloatDiv                  0      0.00%     79.16% # Class of executed instruction
system.cpu1.op_class::SimdFloatMisc                 0      0.00%     79.16% # Class of executed instruction
system.cpu1.op_class::SimdFloatMult                 0      0.00%     79.16% # Class of executed instruction
system.cpu1.op_class::SimdFloatMultAcc              0      0.00%     79.16% # Class of executed instruction
system.cpu1.op_class::SimdFloatSqrt                 0      0.00%     79.16% # Class of executed instruction
system.cpu1.op_class::MemRead                 1191012     13.37%     92.53% # Class of executed instruction
system.cpu1.op_class::MemWrite                 665757      7.47%    100.00% # Class of executed instruction
system.cpu1.op_class::IprAccess                     0      0.00%    100.00% # Class of executed instruction
system.cpu1.op_class::InstPrefetch                  0      0.00%    100.00% # Class of executed instruction
system.cpu1.op_class::total                   8910462                       # Class of executed instruction
system.cpu2.apic_clk_domain.clock                8000                       # Clock period in ticks
system.cpu2.numCycles                      5812484466                       # number of cpu cycles simulated
system.cpu2.numWorkItemsStarted                     0                       # number of work items this cpu started
system.cpu2.numWorkItemsCompleted                   0                       # number of work items this cpu completed
system.cpu2.kern.inst.arm                           0                       # number of arm instructions executed
system.cpu2.kern.inst.quiesce                       0                       # number of quiesce instructions executed
system.cpu2.committedInsts                   48682126                       # Number of instructions committed
system.cpu2.committedOps                     85776182                       # Number of ops (including micro ops) committed
system.cpu2.num_int_alu_accesses             75258600                       # Number of integer alu accesses
system.cpu2.num_fp_alu_accesses              19656007                       # Number of float alu accesses
system.cpu2.num_func_calls                    1290582                       # number of times a function call or return occured
system.cpu2.num_conditional_control_insts      6481946                       # number of instructions that are conditional controls
system.cpu2.num_int_insts                    75258600                       # number of integer instructions
system.cpu2.num_fp_insts                     19656007                       # number of float instructions
system.cpu2.num_int_register_reads          154211444                       # number of times the integer registers were read
system.cpu2.num_int_register_writes          56173035                       # number of times the integer registers were written
system.cpu2.num_fp_register_reads            27213054                       # number of times the floating registers were read
system.cpu2.num_fp_register_writes           14482919                       # number of times the floating registers were written
system.cpu2.num_cc_register_reads            58131266                       # number of times the CC registers were read
system.cpu2.num_cc_register_writes           23610711                       # number of times the CC registers were written
system.cpu2.num_mem_refs                     20358646                       # number of memory refs
system.cpu2.num_load_insts                   13748919                       # Number of load instructions
system.cpu2.num_store_insts                   6609727                       # Number of store instructions
system.cpu2.num_idle_cycles              5631140356.302418                       # Number of idle cycles
system.cpu2.num_busy_cycles              181344109.697582                       # Number of busy cycles
system.cpu2.not_idle_fraction                0.031199                       # Percentage of non-idle cycles
system.cpu2.idle_fraction                    0.968801                       # Percentage of idle cycles
system.cpu2.Branches                          8746982                       # Number of branches fetched
system.cpu2.op_class::No_OpClass               212156      0.25%      0.25% # Class of executed instruction
system.cpu2.op_class::IntAlu                 56145574     65.46%     65.70% # Class of executed instruction
system.cpu2.op_class::IntMult                  243339      0.28%     65.99% # Class of executed instruction
system.cpu2.op_class::IntDiv                   841195      0.98%     66.97% # Class of executed instruction
system.cpu2.op_class::FloatAdd                7917526      9.23%     76.20% # Class of executed instruction
system.cpu2.op_class::FloatCmp                      0      0.00%     76.20% # Class of executed instruction
system.cpu2.op_class::FloatCvt                      0      0.00%     76.20% # Class of executed instruction
system.cpu2.op_class::FloatMult                     0      0.00%     76.20% # Class of executed instruction
system.cpu2.op_class::FloatDiv                  57876      0.07%     76.27% # Class of executed instruction
system.cpu2.op_class::FloatSqrt                     0      0.00%     76.27% # Class of executed instruction
system.cpu2.op_class::SimdAdd                       0      0.00%     76.27% # Class of executed instruction
system.cpu2.op_class::SimdAddAcc                    0      0.00%     76.27% # Class of executed instruction
system.cpu2.op_class::SimdAlu                       0      0.00%     76.27% # Class of executed instruction
system.cpu2.op_class::SimdCmp                       0      0.00%     76.27% # Class of executed instruction
system.cpu2.op_class::SimdCvt                       0      0.00%     76.27% # Class of executed instruction
system.cpu2.op_class::SimdMisc                      0      0.00%     76.27% # Class of executed instruction
system.cpu2.op_class::SimdMult                      0      0.00%     76.27% # Class of executed instruction
system.cpu2.op_class::SimdMultAcc                   0      0.00%     76.27% # Class of executed instruction
system.cpu2.op_class::SimdShift                     0      0.00%     76.27% # Class of executed instruction
system.cpu2.op_class::SimdShiftAcc                  0      0.00%     76.27% # Class of executed instruction
system.cpu2.op_class::SimdSqrt                      0      0.00%     76.27% # Class of executed instruction
system.cpu2.op_class::SimdFloatAdd                  0      0.00%     76.27% # Class of executed instruction
system.cpu2.op_class::SimdFloatAlu                  0      0.00%     76.27% # Class of executed instruction
system.cpu2.op_class::SimdFloatCmp                  0      0.00%     76.27% # Class of executed instruction
system.cpu2.op_class::SimdFloatCvt                  0      0.00%     76.27% # Class of executed instruction
system.cpu2.op_class::SimdFloatDiv                  0      0.00%     76.27% # Class of executed instruction
system.cpu2.op_class::SimdFloatMisc                 0      0.00%     76.27% # Class of executed instruction
system.cpu2.op_class::SimdFloatMult                 0      0.00%     76.27% # Class of executed instruction
system.cpu2.op_class::SimdFloatMultAcc              0      0.00%     76.27% # Class of executed instruction
system.cpu2.op_class::SimdFloatSqrt                 0      0.00%     76.27% # Class of executed instruction
system.cpu2.op_class::MemRead                13748919     16.03%     92.29% # Class of executed instruction
system.cpu2.op_class::MemWrite                6609727      7.71%    100.00% # Class of executed instruction
system.cpu2.op_class::IprAccess                     0      0.00%    100.00% # Class of executed instruction
system.cpu2.op_class::InstPrefetch                  0      0.00%    100.00% # Class of executed instruction
system.cpu2.op_class::total                  85776312                       # Class of executed instruction
system.cpu3.apic_clk_domain.clock                8000                       # Clock period in ticks
system.cpu3.numCycles                      5813154836                       # number of cpu cycles simulated
system.cpu3.numWorkItemsStarted                     0                       # number of work items this cpu started
system.cpu3.numWorkItemsCompleted                   0                       # number of work items this cpu completed
system.cpu3.kern.inst.arm                           0                       # number of arm instructions executed
system.cpu3.kern.inst.quiesce                       0                       # number of quiesce instructions executed
system.cpu3.committedInsts                    2691618                       # Number of instructions committed
system.cpu3.committedOps                      5701847                       # Number of ops (including micro ops) committed
system.cpu3.num_int_alu_accesses              5591118                       # Number of integer alu accesses
system.cpu3.num_fp_alu_accesses                    50                       # Number of float alu accesses
system.cpu3.num_func_calls                     146023                       # number of times a function call or return occured
system.cpu3.num_conditional_control_insts       476966                       # number of instructions that are conditional controls
system.cpu3.num_int_insts                     5591118                       # number of integer instructions
system.cpu3.num_fp_insts                           50                       # number of float instructions
system.cpu3.num_int_register_reads           11021639                       # number of times the integer registers were read
system.cpu3.num_int_register_writes           4603142                       # number of times the integer registers were written
system.cpu3.num_fp_register_reads                  78                       # number of times the floating registers were read
system.cpu3.num_fp_register_writes                 38                       # number of times the floating registers were written
system.cpu3.num_cc_register_reads             3595622                       # number of times the CC registers were read
system.cpu3.num_cc_register_writes            1804188                       # number of times the CC registers were written
system.cpu3.num_mem_refs                      1234563                       # number of memory refs
system.cpu3.num_load_insts                     770440                       # Number of load instructions
system.cpu3.num_store_insts                    464123                       # Number of store instructions
system.cpu3.num_idle_cycles              5802110486.137540                       # Number of idle cycles
system.cpu3.num_busy_cycles              11044349.862461                       # Number of busy cycles
system.cpu3.not_idle_fraction                0.001900                       # Percentage of non-idle cycles
system.cpu3.idle_fraction                    0.998100                       # Percentage of idle cycles
system.cpu3.Branches                           669164                       # Number of branches fetched
system.cpu3.op_class::No_OpClass                89465      1.57%      1.57% # Class of executed instruction
system.cpu3.op_class::IntAlu                  4336031     76.05%     77.61% # Class of executed instruction
system.cpu3.op_class::IntMult                   10056      0.18%     77.79% # Class of executed instruction
system.cpu3.op_class::IntDiv                    31723      0.56%     78.35% # Class of executed instruction
system.cpu3.op_class::FloatAdd                     32      0.00%     78.35% # Class of executed instruction
system.cpu3.op_class::FloatCmp                      0      0.00%     78.35% # Class of executed instruction
system.cpu3.op_class::FloatCvt                      0      0.00%     78.35% # Class of executed instruction
system.cpu3.op_class::FloatMult                     0      0.00%     78.35% # Class of executed instruction
system.cpu3.op_class::FloatDiv                      0      0.00%     78.35% # Class of executed instruction
system.cpu3.op_class::FloatSqrt                     0      0.00%     78.35% # Class of executed instruction
system.cpu3.op_class::SimdAdd                       0      0.00%     78.35% # Class of executed instruction
system.cpu3.op_class::SimdAddAcc                    0      0.00%     78.35% # Class of executed instruction
system.cpu3.op_class::SimdAlu                       0      0.00%     78.35% # Class of executed instruction
system.cpu3.op_class::SimdCmp                       0      0.00%     78.35% # Class of executed instruction
system.cpu3.op_class::SimdCvt                       0      0.00%     78.35% # Class of executed instruction
system.cpu3.op_class::SimdMisc                      0      0.00%     78.35% # Class of executed instruction
system.cpu3.op_class::SimdMult                      0      0.00%     78.35% # Class of executed instruction
system.cpu3.op_class::SimdMultAcc                   0      0.00%     78.35% # Class of executed instruction
system.cpu3.op_class::SimdShift                     0      0.00%     78.35% # Class of executed instruction
system.cpu3.op_class::SimdShiftAcc                  0      0.00%     78.35% # Class of executed instruction
system.cpu3.op_class::SimdSqrt                      0      0.00%     78.35% # Class of executed instruction
system.cpu3.op_class::SimdFloatAdd                  0      0.00%     78.35% # Class of executed instruction
system.cpu3.op_class::SimdFloatAlu                  0      0.00%     78.35% # Class of executed instruction
system.cpu3.op_class::SimdFloatCmp                  0      0.00%     78.35% # Class of executed instruction
system.cpu3.op_class::SimdFloatCvt                  0      0.00%     78.35% # Class of executed instruction
system.cpu3.op_class::SimdFloatDiv                  0      0.00%     78.35% # Class of executed instruction
system.cpu3.op_class::SimdFloatMisc                 0      0.00%     78.35% # Class of executed instruction
system.cpu3.op_class::SimdFloatMult                 0      0.00%     78.35% # Class of executed instruction
system.cpu3.op_class::SimdFloatMultAcc              0      0.00%     78.35% # Class of executed instruction
system.cpu3.op_class::SimdFloatSqrt                 0      0.00%     78.35% # Class of executed instruction
system.cpu3.op_class::MemRead                  770440     13.51%     91.86% # Class of executed instruction
system.cpu3.op_class::MemWrite                 464123      8.14%    100.00% # Class of executed instruction
system.cpu3.op_class::IprAccess                     0      0.00%    100.00% # Class of executed instruction
system.cpu3.op_class::InstPrefetch                  0      0.00%    100.00% # Class of executed instruction
system.cpu3.op_class::total                   5701870                       # Class of executed instruction
system.iobus.trans_dist::ReadReq                  865                       # Transaction distribution
system.iobus.trans_dist::ReadResp                 865                       # Transaction distribution
system.iobus.trans_dist::WriteReq                4539                       # Transaction distribution
system.iobus.trans_dist::WriteResp               4539                       # Transaction distribution
system.iobus.trans_dist::MessageReq               112                       # Transaction distribution
system.iobus.trans_dist::MessageResp              112                       # Transaction distribution
system.iobus.pkt_count_system.pc.south_bridge.io_apic.int_master::system.ruby.l1_cntrl0.sequencer.pio-slave-port           52                       # Packet count per connected master and slave (bytes)
system.iobus.pkt_count_system.pc.south_bridge.io_apic.int_master::system.ruby.l1_cntrl1.sequencer.pio-slave-port           50                       # Packet count per connected master and slave (bytes)
system.iobus.pkt_count_system.pc.south_bridge.io_apic.int_master::system.ruby.l1_cntrl2.sequencer.pio-slave-port           50                       # Packet count per connected master and slave (bytes)
system.iobus.pkt_count_system.pc.south_bridge.io_apic.int_master::system.ruby.l1_cntrl3.sequencer.pio-slave-port           52                       # Packet count per connected master and slave (bytes)
system.iobus.pkt_count_system.pc.south_bridge.io_apic.int_master::total          204                       # Packet count per connected master and slave (bytes)
system.iobus.pkt_count_system.ruby.l1_cntrl0.sequencer.mem-master-port::system.pc.south_bridge.ide.pio         1048                       # Packet count per connected master and slave (bytes)
system.iobus.pkt_count_system.ruby.l1_cntrl0.sequencer.mem-master-port::system.pc.south_bridge.io_apic.pio            8                       # Packet count per connected master and slave (bytes)
system.iobus.pkt_count_system.ruby.l1_cntrl0.sequencer.mem-master-port::system.ruby.l1_cntrl0.sequencer.pio-slave-port         1538                       # Packet count per connected master and slave (bytes)
system.iobus.pkt_count_system.ruby.l1_cntrl0.sequencer.mem-master-port::system.ruby.l1_cntrl1.sequencer.pio-slave-port            2                       # Packet count per connected master and slave (bytes)
system.iobus.pkt_count_system.ruby.l1_cntrl0.sequencer.mem-master-port::system.ruby.l1_cntrl2.sequencer.pio-slave-port            4                       # Packet count per connected master and slave (bytes)
system.iobus.pkt_count_system.ruby.l1_cntrl0.sequencer.mem-master-port::system.ruby.l1_cntrl3.sequencer.pio-slave-port            6                       # Packet count per connected master and slave (bytes)
system.iobus.pkt_count_system.ruby.l1_cntrl0.sequencer.mem-master-port::total         2606                       # Packet count per connected master and slave (bytes)
system.iobus.pkt_count_system.ruby.l1_cntrl1.sequencer.mem-master-port::system.pc.south_bridge.ide.pio         1274                       # Packet count per connected master and slave (bytes)
system.iobus.pkt_count_system.ruby.l1_cntrl1.sequencer.mem-master-port::system.pc.south_bridge.io_apic.pio            6                       # Packet count per connected master and slave (bytes)
system.iobus.pkt_count_system.ruby.l1_cntrl1.sequencer.mem-master-port::system.pc.com_1.pio          174                       # Packet count per connected master and slave (bytes)
system.iobus.pkt_count_system.ruby.l1_cntrl1.sequencer.mem-master-port::system.ruby.l1_cntrl1.sequencer.pio-slave-port         1514                       # Packet count per connected master and slave (bytes)
system.iobus.pkt_count_system.ruby.l1_cntrl1.sequencer.mem-master-port::system.ruby.l1_cntrl2.sequencer.pio-slave-port            2                       # Packet count per connected master and slave (bytes)
system.iobus.pkt_count_system.ruby.l1_cntrl1.sequencer.mem-master-port::total         2970                       # Packet count per connected master and slave (bytes)
system.iobus.pkt_count_system.ruby.l1_cntrl2.sequencer.mem-master-port::system.pc.south_bridge.ide.pio         1104                       # Packet count per connected master and slave (bytes)
system.iobus.pkt_count_system.ruby.l1_cntrl2.sequencer.mem-master-port::system.pc.south_bridge.io_apic.pio            8                       # Packet count per connected master and slave (bytes)
system.iobus.pkt_count_system.ruby.l1_cntrl2.sequencer.mem-master-port::system.ruby.l1_cntrl1.sequencer.pio-slave-port            2                       # Packet count per connected master and slave (bytes)
system.iobus.pkt_count_system.ruby.l1_cntrl2.sequencer.mem-master-port::system.ruby.l1_cntrl2.sequencer.pio-slave-port         1522                       # Packet count per connected master and slave (bytes)
system.iobus.pkt_count_system.ruby.l1_cntrl2.sequencer.mem-master-port::system.ruby.l1_cntrl3.sequencer.pio-slave-port            2                       # Packet count per connected master and slave (bytes)
system.iobus.pkt_count_system.ruby.l1_cntrl2.sequencer.mem-master-port::total         2638                       # Packet count per connected master and slave (bytes)
system.iobus.pkt_count_system.ruby.l1_cntrl3.sequencer.mem-master-port::system.pc.south_bridge.ide.pio         1082                       # Packet count per connected master and slave (bytes)
system.iobus.pkt_count_system.ruby.l1_cntrl3.sequencer.mem-master-port::system.pc.south_bridge.io_apic.pio            8                       # Packet count per connected master and slave (bytes)
system.iobus.pkt_count_system.ruby.l1_cntrl3.sequencer.mem-master-port::system.pc.com_1.pio            2                       # Packet count per connected master and slave (bytes)
system.iobus.pkt_count_system.ruby.l1_cntrl3.sequencer.mem-master-port::system.ruby.l1_cntrl0.sequencer.pio-slave-port            2                       # Packet count per connected master and slave (bytes)
system.iobus.pkt_count_system.ruby.l1_cntrl3.sequencer.mem-master-port::system.ruby.l1_cntrl3.sequencer.pio-slave-port         1520                       # Packet count per connected master and slave (bytes)
system.iobus.pkt_count_system.ruby.l1_cntrl3.sequencer.mem-master-port::total         2614                       # Packet count per connected master and slave (bytes)
system.iobus.pkt_count::total                   11032                       # Packet count per connected master and slave (bytes)
system.iobus.pkt_size_system.pc.south_bridge.io_apic.int_master::system.ruby.l1_cntrl0.sequencer.pio-slave-port          104                       # Cumulative packet size per connected master and slave (bytes)
system.iobus.pkt_size_system.pc.south_bridge.io_apic.int_master::system.ruby.l1_cntrl1.sequencer.pio-slave-port          100                       # Cumulative packet size per connected master and slave (bytes)
system.iobus.pkt_size_system.pc.south_bridge.io_apic.int_master::system.ruby.l1_cntrl2.sequencer.pio-slave-port          100                       # Cumulative packet size per connected master and slave (bytes)
system.iobus.pkt_size_system.pc.south_bridge.io_apic.int_master::system.ruby.l1_cntrl3.sequencer.pio-slave-port          104                       # Cumulative packet size per connected master and slave (bytes)
system.iobus.pkt_size_system.pc.south_bridge.io_apic.int_master::total          408                       # Cumulative packet size per connected master and slave (bytes)
system.iobus.pkt_size_system.ruby.l1_cntrl0.sequencer.mem-master-port::system.pc.south_bridge.ide.pio          590                       # Cumulative packet size per connected master and slave (bytes)
system.iobus.pkt_size_system.ruby.l1_cntrl0.sequencer.mem-master-port::system.pc.south_bridge.io_apic.pio           16                       # Cumulative packet size per connected master and slave (bytes)
system.iobus.pkt_size_system.ruby.l1_cntrl0.sequencer.mem-master-port::system.ruby.l1_cntrl0.sequencer.pio-slave-port         3076                       # Cumulative packet size per connected master and slave (bytes)
system.iobus.pkt_size_system.ruby.l1_cntrl0.sequencer.mem-master-port::system.ruby.l1_cntrl1.sequencer.pio-slave-port            4                       # Cumulative packet size per connected master and slave (bytes)
system.iobus.pkt_size_system.ruby.l1_cntrl0.sequencer.mem-master-port::system.ruby.l1_cntrl2.sequencer.pio-slave-port            8                       # Cumulative packet size per connected master and slave (bytes)
system.iobus.pkt_size_system.ruby.l1_cntrl0.sequencer.mem-master-port::system.ruby.l1_cntrl3.sequencer.pio-slave-port           12                       # Cumulative packet size per connected master and slave (bytes)
system.iobus.pkt_size_system.ruby.l1_cntrl0.sequencer.mem-master-port::total         3706                       # Cumulative packet size per connected master and slave (bytes)
system.iobus.pkt_size_system.ruby.l1_cntrl1.sequencer.mem-master-port::system.pc.south_bridge.ide.pio          724                       # Cumulative packet size per connected master and slave (bytes)
system.iobus.pkt_size_system.ruby.l1_cntrl1.sequencer.mem-master-port::system.pc.south_bridge.io_apic.pio           12                       # Cumulative packet size per connected master and slave (bytes)
system.iobus.pkt_size_system.ruby.l1_cntrl1.sequencer.mem-master-port::system.pc.com_1.pio           87                       # Cumulative packet size per connected master and slave (bytes)
system.iobus.pkt_size_system.ruby.l1_cntrl1.sequencer.mem-master-port::system.ruby.l1_cntrl1.sequencer.pio-slave-port         3028                       # Cumulative packet size per connected master and slave (bytes)
system.iobus.pkt_size_system.ruby.l1_cntrl1.sequencer.mem-master-port::system.ruby.l1_cntrl2.sequencer.pio-slave-port            4                       # Cumulative packet size per connected master and slave (bytes)
system.iobus.pkt_size_system.ruby.l1_cntrl1.sequencer.mem-master-port::total         3855                       # Cumulative packet size per connected master and slave (bytes)
system.iobus.pkt_size_system.ruby.l1_cntrl2.sequencer.mem-master-port::system.pc.south_bridge.ide.pio          624                       # Cumulative packet size per connected master and slave (bytes)
system.iobus.pkt_size_system.ruby.l1_cntrl2.sequencer.mem-master-port::system.pc.south_bridge.io_apic.pio           16                       # Cumulative packet size per connected master and slave (bytes)
system.iobus.pkt_size_system.ruby.l1_cntrl2.sequencer.mem-master-port::system.ruby.l1_cntrl1.sequencer.pio-slave-port            4                       # Cumulative packet size per connected master and slave (bytes)
system.iobus.pkt_size_system.ruby.l1_cntrl2.sequencer.mem-master-port::system.ruby.l1_cntrl2.sequencer.pio-slave-port         3044                       # Cumulative packet size per connected master and slave (bytes)
system.iobus.pkt_size_system.ruby.l1_cntrl2.sequencer.mem-master-port::system.ruby.l1_cntrl3.sequencer.pio-slave-port            4                       # Cumulative packet size per connected master and slave (bytes)
system.iobus.pkt_size_system.ruby.l1_cntrl2.sequencer.mem-master-port::total         3692                       # Cumulative packet size per connected master and slave (bytes)
system.iobus.pkt_size_system.ruby.l1_cntrl3.sequencer.mem-master-port::system.pc.south_bridge.ide.pio          610                       # Cumulative packet size per connected master and slave (bytes)
system.iobus.pkt_size_system.ruby.l1_cntrl3.sequencer.mem-master-port::system.pc.south_bridge.io_apic.pio           16                       # Cumulative packet size per connected master and slave (bytes)
system.iobus.pkt_size_system.ruby.l1_cntrl3.sequencer.mem-master-port::system.pc.com_1.pio            1                       # Cumulative packet size per connected master and slave (bytes)
system.iobus.pkt_size_system.ruby.l1_cntrl3.sequencer.mem-master-port::system.ruby.l1_cntrl0.sequencer.pio-slave-port            4                       # Cumulative packet size per connected master and slave (bytes)
system.iobus.pkt_size_system.ruby.l1_cntrl3.sequencer.mem-master-port::system.ruby.l1_cntrl3.sequencer.pio-slave-port         3040                       # Cumulative packet size per connected master and slave (bytes)
system.iobus.pkt_size_system.ruby.l1_cntrl3.sequencer.mem-master-port::total         3671                       # Cumulative packet size per connected master and slave (bytes)
system.iobus.pkt_size::total                    15332                       # Cumulative packet size per connected master and slave (bytes)
system.iobus.reqLayer2.occupancy              3918500                       # Layer occupancy (ticks)
system.iobus.reqLayer2.utilization                0.0                       # Layer utilization (%)
system.iobus.reqLayer8.occupancy                26996                       # Layer occupancy (ticks)
system.iobus.reqLayer8.utilization                0.0                       # Layer utilization (%)
system.iobus.reqLayer12.occupancy              114000                       # Layer occupancy (ticks)
system.iobus.reqLayer12.utilization               0.0                       # Layer utilization (%)
system.iobus.reqLayer17.occupancy             2157772                       # Layer occupancy (ticks)
system.iobus.reqLayer17.utilization               0.0                       # Layer utilization (%)
system.iobus.reqLayer18.occupancy             1946476                       # Layer occupancy (ticks)
system.iobus.reqLayer18.utilization               0.0                       # Layer utilization (%)
system.iobus.reqLayer19.occupancy             1954467                       # Layer occupancy (ticks)
system.iobus.reqLayer19.utilization               0.0                       # Layer utilization (%)
system.iobus.reqLayer20.occupancy             1960974                       # Layer occupancy (ticks)
system.iobus.reqLayer20.utilization               0.0                       # Layer utilization (%)
system.iobus.respLayer0.occupancy              177402                       # Layer occupancy (ticks)
system.iobus.respLayer0.utilization               0.0                       # Layer utilization (%)
system.iobus.respLayer2.occupancy             1883000                       # Layer occupancy (ticks)
system.iobus.respLayer2.utilization               0.0                       # Layer utilization (%)
system.iobus.respLayer4.occupancy             2142500                       # Layer occupancy (ticks)
system.iobus.respLayer4.utilization               0.0                       # Layer utilization (%)
system.iobus.respLayer6.occupancy             1895500                       # Layer occupancy (ticks)
system.iobus.respLayer6.utilization               0.0                       # Layer utilization (%)
system.iobus.respLayer8.occupancy             1882000                       # Layer occupancy (ticks)
system.iobus.respLayer8.utilization               0.0                       # Layer utilization (%)
system.pc.south_bridge.ide.disks.dma_read_full_pages         1522                       # Number of full page size DMA reads (not PRD).
system.pc.south_bridge.ide.disks.dma_read_bytes      6234112                       # Number of bytes transfered via DMA reads (not PRD).
system.pc.south_bridge.ide.disks.dma_read_txs         1522                       # Number of DMA read transactions (not PRD).
system.pc.south_bridge.ide.disks.dma_write_full_pages           45                       # Number of full page size DMA writes.
system.pc.south_bridge.ide.disks.dma_write_bytes       184320                       # Number of bytes transfered via DMA writes.
system.pc.south_bridge.ide.disks.dma_write_txs           45                       # Number of DMA write transactions.
system.ruby.clk_domain.clock                      500                       # Clock period in ticks
system.ruby.delayHist::bucket_size                  4                       # delay histogram for all message
system.ruby.delayHist::max_bucket                  39                       # delay histogram for all message
system.ruby.delayHist::samples               19533089                       # delay histogram for all message
system.ruby.delayHist::mean                  0.141310                       # delay histogram for all message
system.ruby.delayHist::stdev                 1.050974                       # delay histogram for all message
system.ruby.delayHist                    |    19190591     98.25%     98.25% |        1438      0.01%     98.25% |      340868      1.75%    100.00% |          69      0.00%    100.00% |         104      0.00%    100.00% |           8      0.00%    100.00% |          10      0.00%    100.00% |           0      0.00%    100.00% |           1      0.00%    100.00% |           0      0.00%    100.00% # delay histogram for all message
system.ruby.delayHist::total                 19533089                       # delay histogram for all message
system.ruby.outstanding_req_hist_seqr::bucket_size            1                      
system.ruby.outstanding_req_hist_seqr::max_bucket            9                      
system.ruby.outstanding_req_hist_seqr::samples   2882117626                      
system.ruby.outstanding_req_hist_seqr::mean     1.000000                      
system.ruby.outstanding_req_hist_seqr::gmean     1.000000                      
system.ruby.outstanding_req_hist_seqr::stdev     0.000263                      
system.ruby.outstanding_req_hist_seqr    |           0      0.00%      0.00% |  2882117426    100.00%    100.00% |         200      0.00%    100.00% |           0      0.00%    100.00% |           0      0.00%    100.00% |           0      0.00%    100.00% |           0      0.00%    100.00% |           0      0.00%    100.00% |           0      0.00%    100.00% |           0      0.00%    100.00%
system.ruby.outstanding_req_hist_seqr::total   2882117626                      
system.ruby.latency_hist_seqr::bucket_size          128                      
system.ruby.latency_hist_seqr::max_bucket         1279                      
system.ruby.latency_hist_seqr::samples     2882117626                      
[...]
system.ruby.DMA_Controller.READY.WriteRequest::total         3008                      
system.ruby.DMA_Controller.BUSY_RD.Data  |       98361    100.00%    100.00% |           0      0.00%    100.00%
system.ruby.DMA_Controller.BUSY_RD.Data::total        98361                      
system.ruby.DMA_Controller.BUSY_WR.Ack   |        3008    100.00%    100.00% |           0      0.00%    100.00%
system.ruby.DMA_Controller.BUSY_WR.Ack::total         3008                      
system.ruby.L1Cache_Controller.Load      |   474569604     96.26%     96.26% |     1492978      0.30%     96.57% |    15496871      3.14%     99.71% |     1426799      0.29%    100.00%
system.ruby.L1Cache_Controller.Load::total    492986252                      
system.ruby.L1Cache_Controller.Ifetch    |  2147244498     95.78%     95.78% |     7402118      0.33%     96.11% |    79673926      3.55%     99.67% |     7509045      0.33%    100.00%
system.ruby.L1Cache_Controller.Ifetch::total   2241829587                      
system.ruby.L1Cache_Controller.Store     |   162782051     94.02%     94.02% |     1031171      0.60%     94.62% |     8250178      4.77%     99.38% |     1067205      0.62%    100.00%
system.ruby.L1Cache_Controller.Store::total    173130605                      
system.ruby.L1Cache_Controller.Inv       |       18467     19.45%     19.45% |       23188     24.42%     43.87% |       29442     31.00%     74.87% |       23863     25.13%    100.00%
system.ruby.L1Cache_Controller.Inv::total        94960                      
system.ruby.L1Cache_Controller.L1_Replacement |     4570975     92.43%     92.43% |      105089      2.13%     94.56% |      161249      3.26%     97.82% |      107962      2.18%    100.00%
system.ruby.L1Cache_Controller.L1_Replacement::total      4945275                      
system.ruby.L1Cache_Controller.Fwd_GETX  |        2881     26.83%     26.83% |        1876     17.47%     44.30% |        3278     30.53%     74.83% |        2702     25.17%    100.00%
system.ruby.L1Cache_Controller.Fwd_GETX::total        10737                      
system.ruby.L1Cache_Controller.Fwd_GETS  |        9177     26.78%     26.78% |        9836     28.71%     55.49% |        8150     23.79%     79.28% |        7100     20.72%    100.00%
system.ruby.L1Cache_Controller.Fwd_GETS::total        34263                      
system.ruby.L1Cache_Controller.Data      |         914     19.69%     19.69% |         822     17.71%     37.41% |        1921     41.39%     78.80% |         984     21.20%    100.00%
system.ruby.L1Cache_Controller.Data::total         4641                      
system.ruby.L1Cache_Controller.Data_Exclusive |     2927573     96.39%     96.39% |       22281      0.73%     97.12% |       66789      2.20%     99.32% |       20644      0.68%    100.00%
system.ruby.L1Cache_Controller.Data_Exclusive::total      3037287                      
system.ruby.L1Cache_Controller.DataS_fromL1 |        4923     14.37%     14.37% |       10999     32.10%     46.47% |       10551     30.79%     77.26% |        7790     22.74%    100.00%
system.ruby.L1Cache_Controller.DataS_fromL1::total        34263                      
system.ruby.L1Cache_Controller.Data_all_Acks |     1641314     86.23%     86.23% |       81519      4.28%     90.52% |       92131      4.84%     95.36% |       88388      4.64%    100.00%
system.ruby.L1Cache_Controller.Data_all_Acks::total      1903352                      
system.ruby.L1Cache_Controller.Ack       |       20488     43.53%     43.53% |        8762     18.62%     62.15% |        8439     17.93%     80.08% |        9378     19.92%    100.00%
system.ruby.L1Cache_Controller.Ack::total        47067                      
system.ruby.L1Cache_Controller.Ack_all   |        9409     31.39%     31.39% |        6453     21.53%     52.92% |        7238     24.15%     77.07% |        6873     22.93%    100.00%
system.ruby.L1Cache_Controller.Ack_all::total        29973                      
system.ruby.L1Cache_Controller.WB_Ack    |     3174847     96.02%     96.02% |       25662      0.78%     96.79% |       78542      2.38%     99.17% |       27496      0.83%    100.00%
system.ruby.L1Cache_Controller.WB_Ack::total      3306547                      
system.ruby.L1Cache_Controller.NP.Load   |     3291673     95.62%     95.62% |       34366      1.00%     96.62% |       80898      2.35%     98.97% |       35366      1.03%    100.00%
system.ruby.L1Cache_Controller.NP.Load::total      3442303                      
system.ruby.L1Cache_Controller.NP.Ifetch |     1028556     84.72%     84.72% |       60486      4.98%     89.70% |       63254      5.21%     94.91% |       61758      5.09%    100.00%
system.ruby.L1Cache_Controller.NP.Ifetch::total      1214054                      
system.ruby.L1Cache_Controller.NP.Store  |      250746     86.08%     86.08% |       11732      4.03%     90.10% |       17097      5.87%     95.97% |       11730      4.03%    100.00%
system.ruby.L1Cache_Controller.NP.Store::total       291305                      
system.ruby.L1Cache_Controller.NP.Inv    |       10723     27.94%     27.94% |        6600     17.20%     45.14% |       13465     35.08%     80.22% |        7591     19.78%    100.00%
system.ruby.L1Cache_Controller.NP.Inv::total        38379                      
system.ruby.L1Cache_Controller.I.Load    |        1985      8.45%      8.45% |        7050     30.00%     38.45% |        7557     32.16%     70.60% |        6909     29.40%    100.00%
system.ruby.L1Cache_Controller.I.Load::total        23501                      
system.ruby.L1Cache_Controller.I.Ifetch  |         482     34.75%     34.75% |         359     25.88%     60.63% |         251     18.10%     78.73% |         295     21.27%    100.00%
system.ruby.L1Cache_Controller.I.Ifetch::total         1387                      
system.ruby.L1Cache_Controller.I.Store   |        1281     18.33%     18.33% |        1626     23.27%     41.59% |        2334     33.40%     74.99% |        1748     25.01%    100.00%
system.ruby.L1Cache_Controller.I.Store::total         6989                      
system.ruby.L1Cache_Controller.I.L1_Replacement |        6165     18.06%     18.06% |        9615     28.16%     46.22% |        8867     25.97%     72.19% |        9493     27.81%    100.00%
system.ruby.L1Cache_Controller.I.L1_Replacement::total        34140                      
system.ruby.L1Cache_Controller.S.Load    |    79885473     99.07%     99.07% |      236365      0.29%     99.36% |      253161      0.31%     99.68% |      260495      0.32%    100.00%
system.ruby.L1Cache_Controller.S.Load::total     80635494                      
system.ruby.L1Cache_Controller.S.Ifetch  |  2146215460     95.79%     95.79% |     7341273      0.33%     96.11% |    79610421      3.55%     99.67% |     7446991      0.33%    100.00%
system.ruby.L1Cache_Controller.S.Ifetch::total   2240614145                      
system.ruby.L1Cache_Controller.S.Store   |        8496     33.53%     33.53% |        5633     22.23%     55.77% |        5318     20.99%     76.76% |        5889     23.24%    100.00%
system.ruby.L1Cache_Controller.S.Store::total        25336                      
system.ruby.L1Cache_Controller.S.Inv     |        5730     11.87%     11.87% |       14326     29.69%     41.56% |       14098     29.21%     70.77% |       14106     29.23%    100.00%
system.ruby.L1Cache_Controller.S.Inv::total        48260                      
system.ruby.L1Cache_Controller.S.L1_Replacement |     1389963     86.62%     86.62% |       69812      4.35%     90.98% |       73840      4.60%     95.58% |       70973      4.42%    100.00%
system.ruby.L1Cache_Controller.S.L1_Replacement::total      1604588                      
system.ruby.L1Cache_Controller.E.Load    |   195855343     96.79%     96.79% |      192703      0.10%     96.88% |     6089245      3.01%     99.89% |      217814      0.11%    100.00%
system.ruby.L1Cache_Controller.E.Load::total    202355105                      
system.ruby.L1Cache_Controller.E.Store   |       52702     67.68%     67.68% |        7449      9.57%     77.24% |       10127     13.00%     90.24% |        7597      9.76%    100.00%
system.ruby.L1Cache_Controller.E.Store::total        77875                      
system.ruby.L1Cache_Controller.E.Inv     |         936     37.22%     37.22% |         595     23.66%     60.87% |         511     20.32%     81.19% |         473     18.81%    100.00%
system.ruby.L1Cache_Controller.E.Inv::total         2515                      
system.ruby.L1Cache_Controller.E.L1_Replacement |     2872828     97.61%     97.61% |        8552      0.29%     97.90% |       52588      1.79%     99.69% |        9190      0.31%    100.00%
system.ruby.L1Cache_Controller.E.L1_Replacement::total      2943158                      
system.ruby.L1Cache_Controller.E.Fwd_GETX |         662     36.82%     36.82% |         124      6.90%     43.72% |         264     14.68%     58.40% |         748     41.60%    100.00%
system.ruby.L1Cache_Controller.E.Fwd_GETX::total         1798                      
system.ruby.L1Cache_Controller.E.Fwd_GETS |        1075      9.23%      9.23% |        4686     40.21%     49.44% |        3310     28.40%     77.84% |        2582     22.16%    100.00%
system.ruby.L1Cache_Controller.E.Fwd_GETS::total        11653                      
system.ruby.L1Cache_Controller.M.Load    |   195535130     94.68%     94.68% |     1022494      0.50%     95.17% |     9066010      4.39%     99.56% |      906215      0.44%    100.00%
system.ruby.L1Cache_Controller.M.Load::total    206529849                      
system.ruby.L1Cache_Controller.M.Store   |   162468826     94.06%     94.06% |     1004731      0.58%     94.64% |     8215302      4.76%     99.40% |     1040241      0.60%    100.00%
system.ruby.L1Cache_Controller.M.Store::total    172729100                      
system.ruby.L1Cache_Controller.M.Inv     |        1077     18.56%     18.56% |        1665     28.70%     47.26% |        1367     23.56%     70.82% |        1693     29.18%    100.00%
system.ruby.L1Cache_Controller.M.Inv::total         5802                      
system.ruby.L1Cache_Controller.M.L1_Replacement |      302019     83.11%     83.11% |       17110      4.71%     87.82% |       25954      7.14%     94.96% |       18306      5.04%    100.00%
system.ruby.L1Cache_Controller.M.L1_Replacement::total       363389                      
system.ruby.L1Cache_Controller.M.Fwd_GETX |        2219     24.82%     24.82% |        1752     19.60%     44.42% |        3014     33.72%     78.14% |        1954     21.86%    100.00%
system.ruby.L1Cache_Controller.M.Fwd_GETX::total         8939                      
system.ruby.L1Cache_Controller.M.Fwd_GETS |        8101     35.83%     35.83% |        5150     22.78%     58.61% |        4840     21.41%     80.02% |        4518     19.98%    100.00%
system.ruby.L1Cache_Controller.M.Fwd_GETS::total        22609                      
system.ruby.L1Cache_Controller.IS.Data_Exclusive |     2927573     96.39%     96.39% |       22281      0.73%     97.12% |       66789      2.20%     99.32% |       20644      0.68%    100.00%
system.ruby.L1Cache_Controller.IS.Data_Exclusive::total      3037287                      
system.ruby.L1Cache_Controller.IS.DataS_fromL1 |        4923     14.37%     14.37% |       10999     32.10%     46.47% |       10551     30.79%     77.26% |        7790     22.74%    100.00%
system.ruby.L1Cache_Controller.IS.DataS_fromL1::total        34263                      
system.ruby.L1Cache_Controller.IS.Data_all_Acks |     1390200     86.36%     86.36% |       68981      4.29%     90.65% |       74620      4.64%     95.29% |       75894      4.71%    100.00%
system.ruby.L1Cache_Controller.IS.Data_all_Acks::total      1609695                      
system.ruby.L1Cache_Controller.IM.Data   |         914     19.69%     19.69% |         822     17.71%     37.41% |        1921     41.39%     78.80% |         984     21.20%    100.00%
system.ruby.L1Cache_Controller.IM.Data::total         4641                      
system.ruby.L1Cache_Controller.IM.Data_all_Acks |      251114     85.51%     85.51% |       12538      4.27%     89.78% |       17511      5.96%     95.75% |       12494      4.25%    100.00%
system.ruby.L1Cache_Controller.IM.Data_all_Acks::total       293657                      
system.ruby.L1Cache_Controller.SM.Inv    |           1     25.00%     25.00% |           2     50.00%     75.00% |           1     25.00%    100.00% |           0      0.00%    100.00%
system.ruby.L1Cache_Controller.SM.Inv::total            4                      
system.ruby.L1Cache_Controller.SM.Ack    |       20488     43.53%     43.53% |        8762     18.62%     62.15% |        8439     17.93%     80.08% |        9378     19.92%    100.00%
system.ruby.L1Cache_Controller.SM.Ack::total        47067                      
system.ruby.L1Cache_Controller.SM.Ack_all |        9409     31.39%     31.39% |        6453     21.53%     52.92% |        7238     24.15%     77.07% |        6873     22.93%    100.00%
system.ruby.L1Cache_Controller.SM.Ack_all::total        29973                      
system.ruby.L1Cache_Controller.M_I.Ifetch |           0      0.00%      0.00% |           0      0.00%      0.00% |           0      0.00%      0.00% |           1    100.00%    100.00%
system.ruby.L1Cache_Controller.M_I.Ifetch::total            1                      
system.ruby.L1Cache_Controller.M_I.Fwd_GETS |           1    100.00%    100.00% |           0      0.00%    100.00% |           0      0.00%    100.00% |           0      0.00%    100.00%
system.ruby.L1Cache_Controller.M_I.Fwd_GETS::total            1                      
system.ruby.L1Cache_Controller.M_I.WB_Ack |     3174846     96.02%     96.02% |       25662      0.78%     96.79% |       78542      2.38%     99.17% |       27496      0.83%    100.00%
system.ruby.L1Cache_Controller.M_I.WB_Ack::total      3306546                      
system.ruby.L1Cache_Controller.SINK_WB_ACK.WB_Ack |           1    100.00%    100.00% |           0      0.00%    100.00% |           0      0.00%    100.00% |           0      0.00%    100.00%
system.ruby.L1Cache_Controller.SINK_WB_ACK.WB_Ack::total            1                      
system.ruby.L2Cache_Controller.L1_GET_INSTR      1215442      0.00%      0.00%
system.ruby.L2Cache_Controller.L1_GETS        3466525      0.00%      0.00%
system.ruby.L2Cache_Controller.L1_GETX         298301      0.00%      0.00%
system.ruby.L2Cache_Controller.L1_UPGRADE        25336      0.00%      0.00%
system.ruby.L2Cache_Controller.L1_PUTX        3306548      0.00%      0.00%
system.ruby.L2Cache_Controller.L2_Replacement        36474      0.00%      0.00%
system.ruby.L2Cache_Controller.L2_Replacement_clean        91983      0.00%      0.00%
system.ruby.L2Cache_Controller.Mem_Data        145215      0.00%      0.00%
system.ruby.L2Cache_Controller.Mem_Ack         129104      0.00%      0.00%
system.ruby.L2Cache_Controller.WB_Data          28412      0.00%      0.00%
system.ruby.L2Cache_Controller.WB_Data_clean        11653      0.00%      0.00%
system.ruby.L2Cache_Controller.Ack              18226      0.00%      0.00%
system.ruby.L2Cache_Controller.Ack_all          19224      0.00%      0.00%
system.ruby.L2Cache_Controller.Unblock          34263      0.00%      0.00%
system.ruby.L2Cache_Controller.Exclusive_Unblock      3360917      0.00%      0.00%
system.ruby.L2Cache_Controller.MEM_Inv           1294      0.00%      0.00%
system.ruby.L2Cache_Controller.NP.L1_GET_INSTR        14891      0.00%      0.00%
system.ruby.L2Cache_Controller.NP.L1_GETS       102351      0.00%      0.00%
system.ruby.L2Cache_Controller.NP.L1_GETX        27973      0.00%      0.00%
system.ruby.L2Cache_Controller.SS.L1_GET_INSTR      1200533      0.00%      0.00%
system.ruby.L2Cache_Controller.SS.L1_GETS       394238      0.00%      0.00%
system.ruby.L2Cache_Controller.SS.L1_GETX         4641      0.00%      0.00%
system.ruby.L2Cache_Controller.SS.L1_UPGRADE        25332      0.00%      0.00%
system.ruby.L2Cache_Controller.SS.L1_PUTX            1      0.00%      0.00%
system.ruby.L2Cache_Controller.SS.L2_Replacement         1302      0.00%      0.00%
system.ruby.L2Cache_Controller.SS.L2_Replacement_clean        15407      0.00%      0.00%
system.ruby.L2Cache_Controller.M.L1_GET_INSTR           17      0.00%      0.00%
system.ruby.L2Cache_Controller.M.L1_GETS      2934944      0.00%      0.00%
system.ruby.L2Cache_Controller.M.L1_GETX       254947      0.00%      0.00%
system.ruby.L2Cache_Controller.M.L2_Replacement        32623      0.00%      0.00%
system.ruby.L2Cache_Controller.M.L2_Replacement_clean        71040      0.00%      0.00%
system.ruby.L2Cache_Controller.M.MEM_Inv          415      0.00%      0.00%
system.ruby.L2Cache_Controller.MT.L1_GETS        34263      0.00%      0.00%
system.ruby.L2Cache_Controller.MT.L1_GETX        10737      0.00%      0.00%
system.ruby.L2Cache_Controller.MT.L1_PUTX      3306546      0.00%      0.00%
system.ruby.L2Cache_Controller.MT.L2_Replacement         2549      0.00%      0.00%
system.ruby.L2Cache_Controller.MT.L2_Replacement_clean         5536      0.00%      0.00%
system.ruby.L2Cache_Controller.MT.MEM_Inv          232      0.00%      0.00%
system.ruby.L2Cache_Controller.M_I.L1_GET_INSTR            1      0.00%      0.00%
system.ruby.L2Cache_Controller.M_I.L1_GETS            1      0.00%      0.00%
system.ruby.L2Cache_Controller.M_I.Mem_Ack       129104      0.00%      0.00%
system.ruby.L2Cache_Controller.M_I.MEM_Inv          415      0.00%      0.00%
system.ruby.L2Cache_Controller.MT_I.WB_Data         2386      0.00%      0.00%
system.ruby.L2Cache_Controller.MT_I.Ack_all          395      0.00%      0.00%
system.ruby.L2Cache_Controller.MT_I.MEM_Inv          232      0.00%      0.00%
system.ruby.L2Cache_Controller.MCT_I.WB_Data         3416      0.00%      0.00%
system.ruby.L2Cache_Controller.MCT_I.Ack_all         2120      0.00%      0.00%
system.ruby.L2Cache_Controller.I_I.Ack          16672      0.00%      0.00%
system.ruby.L2Cache_Controller.I_I.Ack_all        15407      0.00%      0.00%
system.ruby.L2Cache_Controller.S_I.Ack           1554      0.00%      0.00%
system.ruby.L2Cache_Controller.S_I.Ack_all         1302      0.00%      0.00%
system.ruby.L2Cache_Controller.ISS.L1_GETS            8      0.00%      0.00%
system.ruby.L2Cache_Controller.ISS.Mem_Data       102343      0.00%      0.00%
system.ruby.L2Cache_Controller.IS.Mem_Data        14899      0.00%      0.00%
system.ruby.L2Cache_Controller.IM.Mem_Data        27973      0.00%      0.00%
system.ruby.L2Cache_Controller.SS_MB.L1_GETS           99      0.00%      0.00%
system.ruby.L2Cache_Controller.SS_MB.L1_GETX            1      0.00%      0.00%
system.ruby.L2Cache_Controller.SS_MB.L1_UPGRADE            4      0.00%      0.00%
system.ruby.L2Cache_Controller.SS_MB.Exclusive_Unblock        29973      0.00%      0.00%
system.ruby.L2Cache_Controller.MT_MB.L1_GETS          617      0.00%      0.00%
system.ruby.L2Cache_Controller.MT_MB.L1_GETX            2      0.00%      0.00%
system.ruby.L2Cache_Controller.MT_MB.Exclusive_Unblock      3330944      0.00%      0.00%
system.ruby.L2Cache_Controller.MT_IIB.L1_GETS            4      0.00%      0.00%
system.ruby.L2Cache_Controller.MT_IIB.L1_PUTX            1      0.00%      0.00%
system.ruby.L2Cache_Controller.MT_IIB.WB_Data        22591      0.00%      0.00%
system.ruby.L2Cache_Controller.MT_IIB.WB_Data_clean        11644      0.00%      0.00%
system.ruby.L2Cache_Controller.MT_IIB.Unblock           28      0.00%      0.00%
system.ruby.L2Cache_Controller.MT_IB.WB_Data           19      0.00%      0.00%
system.ruby.L2Cache_Controller.MT_IB.WB_Data_clean            9      0.00%      0.00%
system.ruby.L2Cache_Controller.MT_SB.Unblock        34235      0.00%      0.00%

---------- End Simulation Statistics   ----------
