
---------- Begin Simulation Statistics ----------
sim_seconds                                  1.140654                       # Number of seconds simulated
sim_ticks                                1140654445500                       # Number of ticks simulated
final_tick                               53697164311001                       # Number of ticks from beginning of simulation (restored from checkpoints and never reset)
sim_freq                                 1000000000000                       # Frequency of simulated ticks
host_inst_rate                                 113479                       # Simulator instruction rate (inst/s)
host_op_rate                                   151791                       # Simulator op (including micro ops) rate (op/s)
host_tick_rate                              239133736                       # Simulator tick rate (ticks/s)
host_mem_usage                                1790936                       # Number of bytes of host memory used
host_seconds                                  4769.94                       # Real time elapsed on the host
sim_insts                                   541288503                       # Number of instructions simulated
sim_ops                                     724032803                       # Number of ops (including micro ops) simulated
system.voltage_domain.voltage                       1                       # Voltage in Volts
system.clk_domain.clock                          1000                       # Clock period in ticks
system.mem_ctrls.bytes_read::ruby.dir_cntrl0    177670464                       # Number of bytes read from this memory
system.mem_ctrls.bytes_read::total          177670464                       # Number of bytes read from this memory
system.mem_ctrls.bytes_written::ruby.dir_cntrl0    108083840                       # Number of bytes written to this memory
system.mem_ctrls.bytes_written::total       108083840                       # Number of bytes written to this memory
system.mem_ctrls.num_reads::ruby.dir_cntrl0      2776101                       # Number of read requests responded to by this memory
system.mem_ctrls.num_reads::total             2776101                       # Number of read requests responded to by this memory
system.mem_ctrls.num_writes::ruby.dir_cntrl0      1688810                       # Number of write requests responded to by this memory
system.mem_ctrls.num_writes::total            1688810                       # Number of write requests responded to by this memory
system.mem_ctrls.bw_read::ruby.dir_cntrl0    155761865                       # Total read bandwidth from this memory (bytes/s)
system.mem_ctrls.bw_read::total             155761865                       # Total read bandwidth from this memory (bytes/s)
system.mem_ctrls.bw_write::ruby.dir_cntrl0     94755989                       # Write bandwidth from this memory (bytes/s)
system.mem_ctrls.bw_write::total             94755989                       # Write bandwidth from this memory (bytes/s)
system.mem_ctrls.bw_total::ruby.dir_cntrl0    250517854                       # Total bandwidth to/from this memory (bytes/s)
system.mem_ctrls.bw_total::total            250517854                       # Total bandwidth to/from this memory (bytes/s)
system.mem_ctrls.readReqs                     2776101                       # Number of read requests accepted
system.mem_ctrls.writeReqs                    1688810                       # Number of write requests accepted
system.mem_ctrls.readBursts                   2776101                       # Number of DRAM read bursts, including those serviced by the write queue
system.mem_ctrls.writeBursts                  1688810                       # Number of DRAM write bursts, including those merged in the write queue
system.mem_ctrls.bytesReadDRAM              173959872                       # Total number of bytes read from DRAM
system.mem_ctrls.bytesReadWrQ                 3710592                       # Total number of bytes read from write queue
system.mem_ctrls.bytesWritten               108018560                       # Total number of bytes written to DRAM
system.mem_ctrls.bytesReadSys               177670464                       # Total read bytes from the system interface side
system.mem_ctrls.bytesWrittenSys            108083840                       # Total written bytes from the system interface side
system.mem_ctrls.servicedByWrQ                  57978                       # Number of DRAM read bursts serviced by the write queue
system.mem_ctrls.mergedWrBursts                  1030                       # Number of DRAM write bursts merged with an existing one
system.mem_ctrls.neitherReadNorWriteReqs            0                       # Number of requests that are neither read nor write
system.mem_ctrls.perBankRdBursts::0            172268                       # Per bank write bursts
system.mem_ctrls.perBankRdBursts::1            174135                       # Per bank write bursts
system.mem_ctrls.perBankRdBursts::2            167642                       # Per bank write bursts
system.mem_ctrls.perBankRdBursts::3            166995                       # Per bank write bursts
system.mem_ctrls.perBankRdBursts::4            168179                       # Per bank write bursts
system.mem_ctrls.perBankRdBursts::5            169746                       # Per bank write bursts
system.mem_ctrls.perBankRdBursts::6            169326                       # Per bank write bursts
system.mem_ctrls.perBankRdBursts::7            169981                       # Per bank write bursts
system.mem_ctrls.perBankRdBursts::8            168354                       # Per bank write bursts
system.mem_ctrls.perBankRdBursts::9            168658                       # Per bank write bursts
system.mem_ctrls.perBankRdBursts::10           169322                       # Per bank write bursts
system.mem_ctrls.perBankRdBursts::11           170835                       # Per bank write bursts
system.mem_ctrls.perBankRdBursts::12           169101                       # Per bank write bursts
system.mem_ctrls.perBankRdBursts::13           171990                       # Per bank write bursts
system.mem_ctrls.perBankRdBursts::14           172544                       # Per bank write bursts
system.mem_ctrls.perBankRdBursts::15           169047                       # Per bank write bursts
system.mem_ctrls.perBankWrBursts::0            107286                       # Per bank write bursts
system.mem_ctrls.perBankWrBursts::1            108230                       # Per bank write bursts
system.mem_ctrls.perBankWrBursts::2            104576                       # Per bank write bursts
system.mem_ctrls.perBankWrBursts::3            104327                       # Per bank write bursts
system.mem_ctrls.perBankWrBursts::4            103513                       # Per bank write bursts
system.mem_ctrls.perBankWrBursts::5            104677                       # Per bank write bursts
system.mem_ctrls.perBankWrBursts::6            105774                       # Per bank write bursts
system.mem_ctrls.perBankWrBursts::7            105160                       # Per bank write bursts
system.mem_ctrls.perBankWrBursts::8            103640                       # Per bank write bursts
system.mem_ctrls.perBankWrBursts::9            105444                       # Per bank write bursts
system.mem_ctrls.perBankWrBursts::10           104627                       # Per bank write bursts
system.mem_ctrls.perBankWrBursts::11           107110                       # Per bank write bursts
system.mem_ctrls.perBankWrBursts::12           103750                       # Per bank write bursts
system.mem_ctrls.perBankWrBursts::13           107502                       # Per bank write bursts
system.mem_ctrls.perBankWrBursts::14           106346                       # Per bank write bursts
system.mem_ctrls.perBankWrBursts::15           105828                       # Per bank write bursts
system.mem_ctrls.numRdRetry                         0                       # Number of times read queue was full causing retry
system.mem_ctrls.numWrRetry                         0                       # Number of times write queue was full causing retry
system.mem_ctrls.totGap                  1140654541000                       # Total gap between requests
system.mem_ctrls.readPktSize::0                     0                       # Read request sizes (log2)
system.mem_ctrls.readPktSize::1                     0                       # Read request sizes (log2)
system.mem_ctrls.readPktSize::2                     0                       # Read request sizes (log2)
system.mem_ctrls.readPktSize::3                     0                       # Read request sizes (log2)
system.mem_ctrls.readPktSize::4                     0                       # Read request sizes (log2)
system.mem_ctrls.readPktSize::5                     0                       # Read request sizes (log2)
system.mem_ctrls.readPktSize::6               2776101                       # Read request sizes (log2)
system.mem_ctrls.writePktSize::0                    0                       # Write request sizes (log2)
system.mem_ctrls.writePktSize::1                    0                       # Write request sizes (log2)
system.mem_ctrls.writePktSize::2                    0                       # Write request sizes (log2)
system.mem_ctrls.writePktSize::3                    0                       # Write request sizes (log2)
system.mem_ctrls.writePktSize::4                    0                       # Write request sizes (log2)
system.mem_ctrls.writePktSize::5                    0                       # Write request sizes (log2)
system.mem_ctrls.writePktSize::6              1688810                       # Write request sizes (log2)
system.mem_ctrls.rdQLenPdf::0                 2716857                       # What read queue length does an incoming req see
system.mem_ctrls.rdQLenPdf::1                    1266                       # What read queue length does an incoming req see
system.mem_ctrls.rdQLenPdf::2                       0                       # What read queue length does an incoming req see
system.mem_ctrls.rdQLenPdf::3                       0                       # What read queue length does an incoming req see
system.mem_ctrls.rdQLenPdf::4                       0                       # What read queue length does an incoming req see
system.mem_ctrls.rdQLenPdf::5                       0                       # What read queue length does an incoming req see
system.mem_ctrls.rdQLenPdf::6                       0                       # What read queue length does an incoming req see
system.mem_ctrls.rdQLenPdf::7                       0                       # What read queue length does an incoming req see
system.mem_ctrls.rdQLenPdf::8                       0                       # What read queue length does an incoming req see
system.mem_ctrls.rdQLenPdf::9                       0                       # What read queue length does an incoming req see
system.mem_ctrls.rdQLenPdf::10                      0                       # What read queue length does an incoming req see
system.mem_ctrls.rdQLenPdf::11                      0                       # What read queue length does an incoming req see
system.mem_ctrls.rdQLenPdf::12                      0                       # What read queue length does an incoming req see
system.mem_ctrls.rdQLenPdf::13                      0                       # What read queue length does an incoming req see
system.mem_ctrls.rdQLenPdf::14                      0                       # What read queue length does an incoming req see
system.mem_ctrls.rdQLenPdf::15                      0                       # What read queue length does an incoming req see
system.mem_ctrls.rdQLenPdf::16                      0                       # What read queue length does an incoming req see
system.mem_ctrls.rdQLenPdf::17                      0                       # What read queue length does an incoming req see
system.mem_ctrls.rdQLenPdf::18                      0                       # What read queue length does an incoming req see
system.mem_ctrls.rdQLenPdf::19                      0                       # What read queue length does an incoming req see
system.mem_ctrls.rdQLenPdf::20                      0                       # What read queue length does an incoming req see
system.mem_ctrls.rdQLenPdf::21                      0                       # What read queue length does an incoming req see
system.mem_ctrls.rdQLenPdf::22                      0                       # What read queue length does an incoming req see
system.mem_ctrls.rdQLenPdf::23                      0                       # What read queue length does an incoming req see
system.mem_ctrls.rdQLenPdf::24                      0                       # What read queue length does an incoming req see
system.mem_ctrls.rdQLenPdf::25                      0                       # What read queue length does an incoming req see
system.mem_ctrls.rdQLenPdf::26                      0                       # What read queue length does an incoming req see
system.mem_ctrls.rdQLenPdf::27                      0                       # What read queue length does an incoming req see
system.mem_ctrls.rdQLenPdf::28                      0                       # What read queue length does an incoming req see
system.mem_ctrls.rdQLenPdf::29                      0                       # What read queue length does an incoming req see
system.mem_ctrls.rdQLenPdf::30                      0                       # What read queue length does an incoming req see
system.mem_ctrls.rdQLenPdf::31                      0                       # What read queue length does an incoming req see
system.mem_ctrls.wrQLenPdf::0                       0                       # What write queue length does an incoming req see
system.mem_ctrls.wrQLenPdf::1                       0                       # What write queue length does an incoming req see
system.mem_ctrls.wrQLenPdf::2                       0                       # What write queue length does an incoming req see
system.mem_ctrls.wrQLenPdf::3                       0                       # What write queue length does an incoming req see
system.mem_ctrls.wrQLenPdf::4                       0                       # What write queue length does an incoming req see
system.mem_ctrls.wrQLenPdf::5                       0                       # What write queue length does an incoming req see
system.mem_ctrls.wrQLenPdf::6                       0                       # What write queue length does an incoming req see
system.mem_ctrls.wrQLenPdf::7                       0                       # What write queue length does an incoming req see
system.mem_ctrls.wrQLenPdf::8                       0                       # What write queue length does an incoming req see
system.mem_ctrls.wrQLenPdf::9                       0                       # What write queue length does an incoming req see
system.mem_ctrls.wrQLenPdf::10                      0                       # What write queue length does an incoming req see
system.mem_ctrls.wrQLenPdf::11                      0                       # What write queue length does an incoming req see
system.mem_ctrls.wrQLenPdf::12                      0                       # What write queue length does an incoming req see
system.mem_ctrls.wrQLenPdf::13                      0                       # What write queue length does an incoming req see
system.mem_ctrls.wrQLenPdf::14                      0                       # What write queue length does an incoming req see
system.mem_ctrls.wrQLenPdf::15                  34800                       # What write queue length does an incoming req see
system.mem_ctrls.wrQLenPdf::16                  38620                       # What write queue length does an incoming req see
system.mem_ctrls.wrQLenPdf::17                  76058                       # What write queue length does an incoming req see
system.mem_ctrls.wrQLenPdf::18                  98370                       # What write queue length does an incoming req see
system.mem_ctrls.wrQLenPdf::19                 102807                       # What write queue length does an incoming req see
system.mem_ctrls.wrQLenPdf::20                 103343                       # What write queue length does an incoming req see
system.mem_ctrls.wrQLenPdf::21                 103302                       # What write queue length does an incoming req see
system.mem_ctrls.wrQLenPdf::22                 103451                       # What write queue length does an incoming req see
system.mem_ctrls.wrQLenPdf::23                 103696                       # What write queue length does an incoming req see
system.mem_ctrls.wrQLenPdf::24                 103586                       # What write queue length does an incoming req see
system.mem_ctrls.wrQLenPdf::25                 103640                       # What write queue length does an incoming req see
system.mem_ctrls.wrQLenPdf::26                 104209                       # What write queue length does an incoming req see
system.mem_ctrls.wrQLenPdf::27                 103701                       # What write queue length does an incoming req see
system.mem_ctrls.wrQLenPdf::28                 102592                       # What write queue length does an incoming req see
system.mem_ctrls.wrQLenPdf::29                 102344                       # What write queue length does an incoming req see
system.mem_ctrls.wrQLenPdf::30                 100911                       # What write queue length does an incoming req see
system.mem_ctrls.wrQLenPdf::31                 100470                       # What write queue length does an incoming req see
system.mem_ctrls.wrQLenPdf::32                 101378                       # What write queue length does an incoming req see
system.mem_ctrls.wrQLenPdf::33                    358                       # What write queue length does an incoming req see
system.mem_ctrls.wrQLenPdf::34                     80                       # What write queue length does an incoming req see
system.mem_ctrls.wrQLenPdf::35                     27                       # What write queue length does an incoming req see
system.mem_ctrls.wrQLenPdf::36                     15                       # What write queue length does an incoming req see
system.mem_ctrls.wrQLenPdf::37                      8                       # What write queue length does an incoming req see
system.mem_ctrls.wrQLenPdf::38                      6                       # What write queue length does an incoming req see
system.mem_ctrls.wrQLenPdf::39                      5                       # What write queue length does an incoming req see
system.mem_ctrls.wrQLenPdf::40                      2                       # What write queue length does an incoming req see
system.mem_ctrls.wrQLenPdf::41                      1                       # What write queue length does an incoming req see
system.mem_ctrls.wrQLenPdf::42                      0                       # What write queue length does an incoming req see
system.mem_ctrls.wrQLenPdf::43                      0                       # What write queue length does an incoming req see
system.mem_ctrls.wrQLenPdf::44                      0                       # What write queue length does an incoming req see
system.mem_ctrls.wrQLenPdf::45                      0                       # What write queue length does an incoming req see
system.mem_ctrls.wrQLenPdf::46                      0                       # What write queue length does an incoming req see
system.mem_ctrls.wrQLenPdf::47                      0                       # What write queue length does an incoming req see
system.mem_ctrls.wrQLenPdf::48                      0                       # What write queue length does an incoming req see
system.mem_ctrls.wrQLenPdf::49                      0                       # What write queue length does an incoming req see
system.mem_ctrls.wrQLenPdf::50                      0                       # What write queue length does an incoming req see
system.mem_ctrls.wrQLenPdf::51                      0                       # What write queue length does an incoming req see
system.mem_ctrls.wrQLenPdf::52                      0                       # What write queue length does an incoming req see
system.mem_ctrls.wrQLenPdf::53                      0                       # What write queue length does an incoming req see
system.mem_ctrls.wrQLenPdf::54                      0                       # What write queue length does an incoming req see
system.mem_ctrls.wrQLenPdf::55                      0                       # What write queue length does an incoming req see
system.mem_ctrls.wrQLenPdf::56                      0                       # What write queue length does an incoming req see
system.mem_ctrls.wrQLenPdf::57                      0                       # What write queue length does an incoming req see
system.mem_ctrls.wrQLenPdf::58                      0                       # What write queue length does an incoming req see
system.mem_ctrls.wrQLenPdf::59                      0                       # What write queue length does an incoming req see
system.mem_ctrls.wrQLenPdf::60                      0                       # What write queue length does an incoming req see
system.mem_ctrls.wrQLenPdf::61                      0                       # What write queue length does an incoming req see
system.mem_ctrls.wrQLenPdf::62                      0                       # What write queue length does an incoming req see
system.mem_ctrls.wrQLenPdf::63                      0                       # What write queue length does an incoming req see
system.mem_ctrls.bytesPerActivate::samples      2039237                       # Bytes accessed per row activation
system.mem_ctrls.bytesPerActivate::mean    138.276346                       # Bytes accessed per row activation
system.mem_ctrls.bytesPerActivate::gmean    90.165879                       # Bytes accessed per row activation
system.mem_ctrls.bytesPerActivate::stdev   204.340645                       # Bytes accessed per row activation
system.mem_ctrls.bytesPerActivate::0-127      1562936     76.64%     76.64% # Bytes accessed per row activation
system.mem_ctrls.bytesPerActivate::128-255       239906     11.76%     88.41% # Bytes accessed per row activation
system.mem_ctrls.bytesPerActivate::256-383        61714      3.03%     91.43% # Bytes accessed per row activation
system.mem_ctrls.bytesPerActivate::384-511        37172      1.82%     93.26% # Bytes accessed per row activation
system.mem_ctrls.bytesPerActivate::512-639        29113      1.43%     94.68% # Bytes accessed per row activation
system.mem_ctrls.bytesPerActivate::640-767        20979      1.03%     95.71% # Bytes accessed per row activation
system.mem_ctrls.bytesPerActivate::768-895        15132      0.74%     96.46% # Bytes accessed per row activation
system.mem_ctrls.bytesPerActivate::896-1023        11102      0.54%     97.00% # Bytes accessed per row activation
system.mem_ctrls.bytesPerActivate::1024-1151        61183      3.00%    100.00% # Bytes accessed per row activation
system.mem_ctrls.bytesPerActivate::total      2039237                       # Bytes accessed per row activation
system.mem_ctrls.rdPerTurnAround::samples       100324                       # Reads before turning the bus around for writes
system.mem_ctrls.rdPerTurnAround::mean      27.110681                       # Reads before turning the bus around for writes
system.mem_ctrls.rdPerTurnAround::stdev     24.502579                       # Reads before turning the bus around for writes
system.mem_ctrls.rdPerTurnAround::0-63          94096     93.79%     93.79% # Reads before turning the bus around for writes
system.mem_ctrls.rdPerTurnAround::64-127         5181      5.16%     98.96% # Reads before turning the bus around for writes
system.mem_ctrls.rdPerTurnAround::128-191          894      0.89%     99.85% # Reads before turning the bus around for writes
system.mem_ctrls.rdPerTurnAround::192-255          115      0.11%     99.96% # Reads before turning the bus around for writes
system.mem_ctrls.rdPerTurnAround::256-319           20      0.02%     99.98% # Reads before turning the bus around for writes
system.mem_ctrls.rdPerTurnAround::320-383            6      0.01%     99.99% # Reads before turning the bus around for writes
system.mem_ctrls.rdPerTurnAround::384-447            5      0.00%     99.99% # Reads before turning the bus around for writes
system.mem_ctrls.rdPerTurnAround::448-511            2      0.00%    100.00% # Reads before turning the bus around for writes
system.mem_ctrls.rdPerTurnAround::512-575            1      0.00%    100.00% # Reads before turning the bus around for writes
system.mem_ctrls.rdPerTurnAround::960-1023            1      0.00%    100.00% # Reads before turning the bus around for writes
system.mem_ctrls.rdPerTurnAround::1088-1151            1      0.00%    100.00% # Reads before turning the bus around for writes
system.mem_ctrls.rdPerTurnAround::1152-1215            1      0.00%    100.00% # Reads before turning the bus around for writes
system.mem_ctrls.rdPerTurnAround::1728-1791            1      0.00%    100.00% # Reads before turning the bus around for writes
system.mem_ctrls.rdPerTurnAround::total        100324                       # Reads before turning the bus around for writes
system.mem_ctrls.wrPerTurnAround::samples       100324                       # Writes before turning the bus around for reads
system.mem_ctrls.wrPerTurnAround::mean      16.823392                       # Writes before turning the bus around for reads
system.mem_ctrls.wrPerTurnAround::gmean     16.787130                       # Writes before turning the bus around for reads
system.mem_ctrls.wrPerTurnAround::stdev      1.135019                       # Writes before turning the bus around for reads
system.mem_ctrls.wrPerTurnAround::16            61620     61.42%     61.42% # Writes before turning the bus around for reads
system.mem_ctrls.wrPerTurnAround::17             2532      2.52%     63.94% # Writes before turning the bus around for reads
system.mem_ctrls.wrPerTurnAround::18            31037     30.94%     94.88% # Writes before turning the bus around for reads
system.mem_ctrls.wrPerTurnAround::19             3742      3.73%     98.61% # Writes before turning the bus around for reads
system.mem_ctrls.wrPerTurnAround::20              893      0.89%     99.50% # Writes before turning the bus around for reads
system.mem_ctrls.wrPerTurnAround::21              231      0.23%     99.73% # Writes before turning the bus around for reads
system.mem_ctrls.wrPerTurnAround::22              101      0.10%     99.83% # Writes before turning the bus around for reads
system.mem_ctrls.wrPerTurnAround::23               66      0.07%     99.90% # Writes before turning the bus around for reads
system.mem_ctrls.wrPerTurnAround::24               46      0.05%     99.94% # Writes before turning the bus around for reads
system.mem_ctrls.wrPerTurnAround::25               22      0.02%     99.97% # Writes before turning the bus around for reads
system.mem_ctrls.wrPerTurnAround::26                9      0.01%     99.98% # Writes before turning the bus around for reads
system.mem_ctrls.wrPerTurnAround::27               12      0.01%     99.99% # Writes before turning the bus around for reads
system.mem_ctrls.wrPerTurnAround::28                1      0.00%     99.99% # Writes before turning the bus around for reads
system.mem_ctrls.wrPerTurnAround::29                6      0.01%     99.99% # Writes before turning the bus around for reads
system.mem_ctrls.wrPerTurnAround::30                2      0.00%    100.00% # Writes before turning the bus around for reads
system.mem_ctrls.wrPerTurnAround::32                1      0.00%    100.00% # Writes before turning the bus around for reads
system.mem_ctrls.wrPerTurnAround::34                1      0.00%    100.00% # Writes before turning the bus around for reads
system.mem_ctrls.wrPerTurnAround::35                1      0.00%    100.00% # Writes before turning the bus around for reads
system.mem_ctrls.wrPerTurnAround::36                1      0.00%    100.00% # Writes before turning the bus around for reads
system.mem_ctrls.wrPerTurnAround::total        100324                       # Writes before turning the bus around for reads
system.mem_ctrls.totQLat                  46037205741                       # Total ticks spent queuing
system.mem_ctrls.totMemAccLat             97002011991                       # Total ticks spent from burst creation until serviced by the DRAM
system.mem_ctrls.totBusLat                13590615000                       # Total ticks spent in databus transfers
system.mem_ctrls.avgQLat                     16937.13                       # Average queueing delay per DRAM burst
system.mem_ctrls.avgBusLat                    5000.00                       # Average bus latency per DRAM burst
system.mem_ctrls.avgMemAccLat                35687.13                       # Average memory access latency per DRAM burst
system.mem_ctrls.avgRdBW                       152.51                       # Average DRAM read bandwidth in MiByte/s
system.mem_ctrls.avgWrBW                        94.70                       # Average achieved write bandwidth in MiByte/s
system.mem_ctrls.avgRdBWSys                    155.76                       # Average system read bandwidth in MiByte/s
system.mem_ctrls.avgWrBWSys                     94.76                       # Average system write bandwidth in MiByte/s
system.mem_ctrls.peakBW                      12800.00                       # Theoretical peak bandwidth in MiByte/s
system.mem_ctrls.busUtil                         1.93                       # Data bus utilization in percentage
system.mem_ctrls.busUtilRead                     1.19                       # Data bus utilization in percentage for reads
system.mem_ctrls.busUtilWrite                    0.74                       # Data bus utilization in percentage for writes
system.mem_ctrls.avgRdQLen                       1.00                       # Average read queue length when enqueuing
system.mem_ctrls.avgWrQLen                      24.78                       # Average write queue length when enqueuing
system.mem_ctrls.readRowHits                  1542456                       # Number of row buffer hits during reads
system.mem_ctrls.writeRowHits                  824216                       # Number of row buffer hits during writes
system.mem_ctrls.readRowHitRate                 56.75                       # Row buffer hit rate for reads
system.mem_ctrls.writeRowHitRate                48.83                       # Row buffer hit rate for writes
system.mem_ctrls.avgGap                     255470.83                       # Average gap between requests
system.mem_ctrls.pageHitRate                    53.72                       # Row buffer hit rate, read and write combined
system.mem_ctrls_0.actEnergy               7723999080                       # Energy for activate commands per rank (pJ)
system.mem_ctrls_0.preEnergy               4214483625                       # Energy for precharge commands per rank (pJ)
system.mem_ctrls_0.readEnergy             10692146400                       # Energy for read commands per rank (pJ)
system.mem_ctrls_0.writeEnergy             5467240800                       # Energy for write commands per rank (pJ)
system.mem_ctrls_0.refreshEnergy          74926144800                       # Energy for refresh commands per rank (pJ)
system.mem_ctrls_0.actBackEnergy         248713372215                       # Energy for active background per rank (pJ)
system.mem_ctrls_0.preBackEnergy         470119458750                       # Energy for precharge background per rank (pJ)
system.mem_ctrls_0.totalEnergy           821856845670                       # Total energy per rank (pJ)
system.mem_ctrls_0.averagePower            716.434590                       # Core power per rank (mW)
system.mem_ctrls_0.memoryStateTime::IDLE 776213946250                       # Time in different power states
system.mem_ctrls_0.memoryStateTime::REF   38088960000                       # Time in different power states
system.mem_ctrls_0.memoryStateTime::PRE_PDN            0                       # Time in different power states
system.mem_ctrls_0.memoryStateTime::ACT  326349568250                       # Time in different power states
system.mem_ctrls_0.memoryStateTime::ACT_PDN            0                       # Time in different power states
system.mem_ctrls_1.actEnergy               7731438120                       # Energy for activate commands per rank (pJ)
system.mem_ctrls_1.preEnergy               4218542625                       # Energy for precharge commands per rank (pJ)
system.mem_ctrls_1.readEnergy             10706748000                       # Energy for read commands per rank (pJ)
system.mem_ctrls_1.writeEnergy             5471569440                       # Energy for write commands per rank (pJ)
system.mem_ctrls_1.refreshEnergy          74926144800                       # Energy for refresh commands per rank (pJ)
system.mem_ctrls_1.actBackEnergy         248911537275                       # Energy for active background per rank (pJ)
system.mem_ctrls_1.preBackEnergy         469945629750                       # Energy for precharge background per rank (pJ)
system.mem_ctrls_1.totalEnergy           821911610010                       # Total energy per rank (pJ)
system.mem_ctrls_1.averagePower            716.482330                       # Core power per rank (mW)
system.mem_ctrls_1.memoryStateTime::IDLE 776137809250                       # Time in different power states
system.mem_ctrls_1.memoryStateTime::REF   38088960000                       # Time in different power states
system.mem_ctrls_1.memoryStateTime::PRE_PDN            0                       # Time in different power states
system.mem_ctrls_1.memoryStateTime::ACT  326428234000                       # Time in different power states
system.mem_ctrls_1.memoryStateTime::ACT_PDN            0                       # Time in different power states
system.cpu_voltage_domain.voltage                   1                       # Voltage in Volts
system.cpu_clk_domain.clock                       500                       # Clock period in ticks
system.cpu0.apic_clk_domain.clock                8000                       # Clock period in ticks
system.cpu0.numCycles                      2279147192                       # number of cpu cycles simulated
system.cpu0.numWorkItemsStarted                     0                       # number of work items this cpu started
system.cpu0.numWorkItemsCompleted                   0                       # number of work items this cpu completed
system.cpu0.kern.inst.arm                           0                       # number of arm instructions executed
system.cpu0.kern.inst.quiesce                       0                       # number of quiesce instructions executed
system.cpu0.committedInsts                    2981796                       # Number of instructions committed
system.cpu0.committedOps                      5948405                       # Number of ops (including micro ops) committed
system.cpu0.num_int_alu_accesses              5845042                       # Number of integer alu accesses
system.cpu0.num_fp_alu_accesses                  1826                       # Number of float alu accesses
system.cpu0.num_func_calls                     156376                       # number of times a function call or return occured
system.cpu0.num_conditional_control_insts       493928                       # number of instructions that are conditional controls
system.cpu0.num_int_insts                     5845042                       # number of integer instructions
system.cpu0.num_fp_insts                         1826                       # number of float instructions
system.cpu0.num_int_register_reads           11645142                       # number of times the integer registers were read
system.cpu0.num_int_register_writes           4747435                       # number of times the integer registers were written
system.cpu0.num_fp_register_reads                3068                       # number of times the floating registers were read
system.cpu0.num_fp_register_writes               1448                       # number of times the floating registers were written
system.cpu0.num_cc_register_reads             3719652                       # number of times the CC registers were read
system.cpu0.num_cc_register_writes            2037468                       # number of times the CC registers were written
system.cpu0.num_mem_refs                      1341860                       # number of memory refs
system.cpu0.num_load_insts                     865688                       # Number of load instructions
system.cpu0.num_store_insts                    476172                       # Number of store instructions
system.cpu0.num_idle_cycles              2266743902.130016                       # Number of idle cycles
system.cpu0.num_busy_cycles              12403289.869984                       # Number of busy cycles
system.cpu0.not_idle_fraction                0.005442                       # Percentage of non-idle cycles
system.cpu0.idle_fraction                    0.994558                       # Percentage of idle cycles
system.cpu0.Branches                           678520                       # Number of branches fetched
system.cpu0.op_class::No_OpClass                38076      0.64%      0.64% # Class of executed instruction
system.cpu0.op_class::IntAlu                  4551099     76.51%     77.15% # Class of executed instruction
system.cpu0.op_class::IntMult                    4735      0.08%     77.23% # Class of executed instruction
system.cpu0.op_class::IntDiv                    11349      0.19%     77.42% # Class of executed instruction
system.cpu0.op_class::FloatAdd                   1376      0.02%     77.44% # Class of executed instruction
system.cpu0.op_class::FloatCmp                      0      0.00%     77.44% # Class of executed instruction
system.cpu0.op_class::FloatCvt                      0      0.00%     77.44% # Class of executed instruction
system.cpu0.op_class::FloatMult                     0      0.00%     77.44% # Class of executed instruction
system.cpu0.op_class::FloatDiv                      0      0.00%     77.44% # Class of executed instruction
system.cpu0.op_class::FloatSqrt                     0      0.00%     77.44% # Class of executed instruction
system.cpu0.op_class::SimdAdd                       0      0.00%     77.44% # Class of executed instruction
system.cpu0.op_class::SimdAddAcc                    0      0.00%     77.44% # Class of executed instruction
system.cpu0.op_class::SimdAlu                       0      0.00%     77.44% # Class of executed instruction
system.cpu0.op_class::SimdCmp                       0      0.00%     77.44% # Class of executed instruction
system.cpu0.op_class::SimdCvt                       0      0.00%     77.44% # Class of executed instruction
system.cpu0.op_class::SimdMisc                      0      0.00%     77.44% # Class of executed instruction
system.cpu0.op_class::SimdMult                      0      0.00%     77.44% # Class of executed instruction
system.cpu0.op_class::SimdMultAcc                   0      0.00%     77.44% # Class of executed instruction
system.cpu0.op_class::SimdShift                     0      0.00%     77.44% # Class of executed instruction
system.cpu0.op_class::SimdShiftAcc                  0      0.00%     77.44% # Class of executed instruction
system.cpu0.op_class::SimdSqrt                      0      0.00%     77.44% # Class of executed instruction
system.cpu0.op_class::SimdFloatAdd                  0      0.00%     77.44% # Class of executed instruction
system.cpu0.op_class::SimdFloatAlu                  0      0.00%     77.44% # Class of executed instruction
system.cpu0.op_class::SimdFloatCmp                  0      0.00%     77.44% # Class of executed instruction
system.cpu0.op_class::SimdFloatCvt                  0      0.00%     77.44% # Class of executed instruction
system.cpu0.op_class::SimdFloatDiv                  0      0.00%     77.44% # Class of executed instruction
system.cpu0.op_class::SimdFloatMisc                 0      0.00%     77.44% # Class of executed instruction
system.cpu0.op_class::SimdFloatMult                 0      0.00%     77.44% # Class of executed instruction
system.cpu0.op_class::SimdFloatMultAcc              0      0.00%     77.44% # Class of executed instruction
system.cpu0.op_class::SimdFloatSqrt                 0      0.00%     77.44% # Class of executed instruction
system.cpu0.op_class::MemRead                  865688     14.55%     92.00% # Class of executed instruction
system.cpu0.op_class::MemWrite                 476172      8.00%    100.00% # Class of executed instruction
system.cpu0.op_class::IprAccess                     0      0.00%    100.00% # Class of executed instruction
system.cpu0.op_class::InstPrefetch                  0      0.00%    100.00% # Class of executed instruction
system.cpu0.op_class::total                   5948495                       # Class of executed instruction
system.cpu1.apic_clk_domain.clock                8000                       # Clock period in ticks
system.cpu1.numCycles                      2284032896                       # number of cpu cycles simulated
system.cpu1.numWorkItemsStarted                     0                       # number of work items this cpu started
system.cpu1.numWorkItemsCompleted                   0                       # number of work items this cpu completed
system.cpu1.kern.inst.arm                           0                       # number of arm instructions executed
system.cpu1.kern.inst.quiesce                       0                       # number of quiesce instructions executed
system.cpu1.committedInsts                     839716                       # Number of instructions committed
system.cpu1.committedOps                      1803837                       # Number of ops (including micro ops) committed
system.cpu1.num_int_alu_accesses              1765703                       # Number of integer alu accesses
system.cpu1.num_fp_alu_accesses                    39                       # Number of float alu accesses
system.cpu1.num_func_calls                      52602                       # number of times a function call or return occured
system.cpu1.num_conditional_control_insts       120268                       # number of instructions that are conditional controls
system.cpu1.num_int_insts                     1765703                       # number of integer instructions
system.cpu1.num_fp_insts                           39                       # number of float instructions
system.cpu1.num_int_register_reads            3598854                       # number of times the integer registers were read
system.cpu1.num_int_register_writes           1456693                       # number of times the integer registers were written
system.cpu1.num_fp_register_reads                  63                       # number of times the floating registers were read
system.cpu1.num_fp_register_writes                 31                       # number of times the floating registers were written
system.cpu1.num_cc_register_reads              953605                       # number of times the CC registers were read
system.cpu1.num_cc_register_writes             522811                       # number of times the CC registers were written
system.cpu1.num_mem_refs                       436800                       # number of memory refs
system.cpu1.num_load_insts                     271316                       # Number of load instructions
system.cpu1.num_store_insts                    165484                       # Number of store instructions
system.cpu1.num_idle_cycles              2280205767.653855                       # Number of idle cycles
system.cpu1.num_busy_cycles              3827128.346145                       # Number of busy cycles
system.cpu1.not_idle_fraction                0.001676                       # Percentage of non-idle cycles
system.cpu1.idle_fraction                    0.998324                       # Percentage of idle cycles
system.cpu1.Branches                           189682                       # Number of branches fetched
system.cpu1.op_class::No_OpClass                28780      1.60%      1.60% # Class of executed instruction
system.cpu1.op_class::IntAlu                  1325128     73.46%     75.06% # Class of executed instruction
system.cpu1.op_class::IntMult                    3434      0.19%     75.25% # Class of executed instruction
system.cpu1.op_class::IntDiv                     9687      0.54%     75.78% # Class of executed instruction
system.cpu1.op_class::FloatAdd                     30      0.00%     75.79% # Class of executed instruction
system.cpu1.op_class::FloatCmp                      0      0.00%     75.79% # Class of executed instruction
system.cpu1.op_class::FloatCvt                      0      0.00%     75.79% # Class of executed instruction
system.cpu1.op_class::FloatMult                     0      0.00%     75.79% # Class of executed instruction
system.cpu1.op_class::FloatDiv                      0      0.00%     75.79% # Class of executed instruction
system.cpu1.op_class::FloatSqrt                     0      0.00%     75.79% # Class of executed instruction
system.cpu1.op_class::SimdAdd                       0      0.00%     75.79% # Class of executed instruction
system.cpu1.op_class::SimdAddAcc                    0      0.00%     75.79% # Class of executed instruction
system.cpu1.op_class::SimdAlu                       0      0.00%     75.79% # Class of executed instruction
system.cpu1.op_class::SimdCmp                       0      0.00%     75.79% # Class of executed instruction
system.cpu1.op_class::SimdCvt                       0      0.00%     75.79% # Class of executed instruction
system.cpu1.op_class::SimdMisc                      0      0.00%     75.79% # Class of executed instruction
system.cpu1.op_class::SimdMult                      0      0.00%     75.79% # Class of executed instruction
system.cpu1.op_class::SimdMultAcc                   0      0.00%     75.79% # Class of executed instruction
system.cpu1.op_class::SimdShift                     0      0.00%     75.79% # Class of executed instruction
system.cpu1.op_class::SimdShiftAcc                  0      0.00%     75.79% # Class of executed instruction
system.cpu1.op_class::SimdSqrt                      0      0.00%     75.79% # Class of executed instruction
system.cpu1.op_class::SimdFloatAdd                  0      0.00%     75.79% # Class of executed instruction
system.cpu1.op_class::SimdFloatAlu                  0      0.00%     75.79% # Class of executed instruction
system.cpu1.op_class::SimdFloatCmp                  0      0.00%     75.79% # Class of executed instruction
system.cpu1.op_class::SimdFloatCvt                  0      0.00%     75.79% # Class of executed instruction
system.cpu1.op_class::SimdFloatDiv                  0      0.00%     75.79% # Class of executed instruction
system.cpu1.op_class::SimdFloatMisc                 0      0.00%     75.79% # Class of executed instruction
system.cpu1.op_class::SimdFloatMult                 0      0.00%     75.79% # Class of executed instruction
system.cpu1.op_class::SimdFloatMultAcc              0      0.00%     75.79% # Class of executed instruction
system.cpu1.op_class::SimdFloatSqrt                 0      0.00%     75.79% # Class of executed instruction
system.cpu1.op_class::MemRead                  271316     15.04%     90.83% # Class of executed instruction
system.cpu1.op_class::MemWrite                 165484      9.17%    100.00% # Class of executed instruction
system.cpu1.op_class::IprAccess                     0      0.00%    100.00% # Class of executed instruction
system.cpu1.op_class::InstPrefetch                  0      0.00%    100.00% # Class of executed instruction
system.cpu1.op_class::total                   1803859                       # Class of executed instruction
system.cpu2.apic_clk_domain.clock                8000                       # Clock period in ticks
system.cpu2.numCycles                      2283257907                       # number of cpu cycles simulated
system.cpu2.numWorkItemsStarted                     0                       # number of work items this cpu started
system.cpu2.numWorkItemsCompleted                   0                       # number of work items this cpu completed
system.cpu2.kern.inst.arm                           0                       # number of arm instructions executed
system.cpu2.kern.inst.quiesce                       0                       # number of quiesce instructions executed
system.cpu2.committedInsts                  533848657                       # Number of instructions committed
system.cpu2.committedOps                    709163607                       # Number of ops (including micro ops) committed
system.cpu2.num_int_alu_accesses            508786586                       # Number of integer alu accesses
system.cpu2.num_fp_alu_accesses             331101068                       # Number of float alu accesses
system.cpu2.num_func_calls                     432243                       # number of times a function call or return occured
system.cpu2.num_conditional_control_insts     31466259                       # number of instructions that are conditional controls
system.cpu2.num_int_insts                   508786586                       # number of integer instructions
system.cpu2.num_fp_insts                    331101068                       # number of float instructions
system.cpu2.num_int_register_reads         1070082597                       # number of times the integer registers were read
system.cpu2.num_int_register_writes         339829023                       # number of times the integer registers were written
system.cpu2.num_fp_register_reads           564014582                       # number of times the floating registers were read
system.cpu2.num_fp_register_writes          276695748                       # number of times the floating registers were written
system.cpu2.num_cc_register_reads           220281386                       # number of times the CC registers were read
system.cpu2.num_cc_register_writes          241355301                       # number of times the CC registers were written
system.cpu2.num_mem_refs                    152834538                       # number of memory refs
system.cpu2.num_load_insts                   94758821                       # Number of load instructions
system.cpu2.num_store_insts                  58075717                       # Number of store instructions
system.cpu2.num_idle_cycles              8970387.226804                       # Number of idle cycles
system.cpu2.num_busy_cycles              2274287519.773196                       # Number of busy cycles
system.cpu2.not_idle_fraction                0.996071                       # Percentage of non-idle cycles
system.cpu2.idle_fraction                    0.003929                       # Percentage of idle cycles
system.cpu2.Branches                         33877631                       # Number of branches fetched
system.cpu2.op_class::No_OpClass               955107      0.13%      0.13% # Class of executed instruction
system.cpu2.op_class::IntAlu                444062636     62.62%     62.75% # Class of executed instruction
system.cpu2.op_class::IntMult                   24421      0.00%     62.76% # Class of executed instruction
system.cpu2.op_class::IntDiv                   145476      0.02%     62.78% # Class of executed instruction
system.cpu2.op_class::FloatAdd              111149730     15.67%     78.45% # Class of executed instruction
system.cpu2.op_class::FloatCmp                      0      0.00%     78.45% # Class of executed instruction
system.cpu2.op_class::FloatCvt                      0      0.00%     78.45% # Class of executed instruction
system.cpu2.op_class::FloatMult                     0      0.00%     78.45% # Class of executed instruction
system.cpu2.op_class::FloatDiv                      0      0.00%     78.45% # Class of executed instruction
system.cpu2.op_class::FloatSqrt                     0      0.00%     78.45% # Class of executed instruction
system.cpu2.op_class::SimdAdd                       0      0.00%     78.45% # Class of executed instruction
system.cpu2.op_class::SimdAddAcc                    0      0.00%     78.45% # Class of executed instruction
system.cpu2.op_class::SimdAlu                       0      0.00%     78.45% # Class of executed instruction
system.cpu2.op_class::SimdCmp                       0      0.00%     78.45% # Class of executed instruction
system.cpu2.op_class::SimdCvt                       0      0.00%     78.45% # Class of executed instruction
system.cpu2.op_class::SimdMisc                      0      0.00%     78.45% # Class of executed instruction
system.cpu2.op_class::SimdMult                      0      0.00%     78.45% # Class of executed instruction
system.cpu2.op_class::SimdMultAcc                   0      0.00%     78.45% # Class of executed instruction
system.cpu2.op_class::SimdShift                     0      0.00%     78.45% # Class of executed instruction
system.cpu2.op_class::SimdShiftAcc                  0      0.00%     78.45% # Class of executed instruction
system.cpu2.op_class::SimdSqrt                      0      0.00%     78.45% # Class of executed instruction
system.cpu2.op_class::SimdFloatAdd                  0      0.00%     78.45% # Class of executed instruction
system.cpu2.op_class::SimdFloatAlu                  0      0.00%     78.45% # Class of executed instruction
system.cpu2.op_class::SimdFloatCmp                  0      0.00%     78.45% # Class of executed instruction
system.cpu2.op_class::SimdFloatCvt                  0      0.00%     78.45% # Class of executed instruction
system.cpu2.op_class::SimdFloatDiv                  0      0.00%     78.45% # Class of executed instruction
system.cpu2.op_class::SimdFloatMisc                 0      0.00%     78.45% # Class of executed instruction
system.cpu2.op_class::SimdFloatMult                 0      0.00%     78.45% # Class of executed instruction
system.cpu2.op_class::SimdFloatMultAcc              0      0.00%     78.45% # Class of executed instruction
system.cpu2.op_class::SimdFloatSqrt                 0      0.00%     78.45% # Class of executed instruction
system.cpu2.op_class::MemRead                94758821     13.36%     91.81% # Class of executed instruction
system.cpu2.op_class::MemWrite               58075717      8.19%    100.00% # Class of executed instruction
system.cpu2.op_class::IprAccess                     0      0.00%    100.00% # Class of executed instruction
system.cpu2.op_class::InstPrefetch                  0      0.00%    100.00% # Class of executed instruction
system.cpu2.op_class::total                 709171908                       # Class of executed instruction
system.cpu3.apic_clk_domain.clock                8000                       # Clock period in ticks
system.cpu3.numCycles                      2279453211                       # number of cpu cycles simulated
system.cpu3.numWorkItemsStarted                     0                       # number of work items this cpu started
system.cpu3.numWorkItemsCompleted                   0                       # number of work items this cpu completed
system.cpu3.kern.inst.arm                           0                       # number of arm instructions executed
system.cpu3.kern.inst.quiesce                       0                       # number of quiesce instructions executed
system.cpu3.committedInsts                     792508                       # Number of instructions committed
system.cpu3.committedOps                      1702099                       # Number of ops (including micro ops) committed
system.cpu3.num_int_alu_accesses              1662974                       # Number of integer alu accesses
system.cpu3.num_fp_alu_accesses                     0                       # Number of float alu accesses
system.cpu3.num_func_calls                      47254                       # number of times a function call or return occured
system.cpu3.num_conditional_control_insts       119718                       # number of instructions that are conditional controls
system.cpu3.num_int_insts                     1662974                       # number of integer instructions
system.cpu3.num_fp_insts                            0                       # number of float instructions
system.cpu3.num_int_register_reads            3374396                       # number of times the integer registers were read
system.cpu3.num_int_register_writes           1375802                       # number of times the integer registers were written
system.cpu3.num_fp_register_reads                   0                       # number of times the floating registers were read
system.cpu3.num_fp_register_writes                  0                       # number of times the floating registers were written
system.cpu3.num_cc_register_reads              933800                       # number of times the CC registers were read
system.cpu3.num_cc_register_writes             498471                       # number of times the CC registers were written
system.cpu3.num_mem_refs                       407045                       # number of memory refs
system.cpu3.num_load_insts                     255636                       # Number of load instructions
system.cpu3.num_store_insts                    151409                       # Number of store instructions
system.cpu3.num_idle_cycles              2275976080.696913                       # Number of idle cycles
system.cpu3.num_busy_cycles              3477130.303087                       # Number of busy cycles
system.cpu3.not_idle_fraction                0.001525                       # Percentage of non-idle cycles
system.cpu3.idle_fraction                    0.998475                       # Percentage of idle cycles
system.cpu3.Branches                           182078                       # Number of branches fetched
system.cpu3.op_class::No_OpClass                28130      1.65%      1.65% # Class of executed instruction
system.cpu3.op_class::IntAlu                  1253022     73.62%     75.27% # Class of executed instruction
system.cpu3.op_class::IntMult                    4224      0.25%     75.52% # Class of executed instruction
system.cpu3.op_class::IntDiv                     9681      0.57%     76.09% # Class of executed instruction
system.cpu3.op_class::FloatAdd                      0      0.00%     76.09% # Class of executed instruction
system.cpu3.op_class::FloatCmp                      0      0.00%     76.09% # Class of executed instruction
system.cpu3.op_class::FloatCvt                      0      0.00%     76.09% # Class of executed instruction
system.cpu3.op_class::FloatMult                     0      0.00%     76.09% # Class of executed instruction
system.cpu3.op_class::FloatDiv                      0      0.00%     76.09% # Class of executed instruction
system.cpu3.op_class::FloatSqrt                     0      0.00%     76.09% # Class of executed instruction
system.cpu3.op_class::SimdAdd                       0      0.00%     76.09% # Class of executed instruction
system.cpu3.op_class::SimdAddAcc                    0      0.00%     76.09% # Class of executed instruction
system.cpu3.op_class::SimdAlu                       0      0.00%     76.09% # Class of executed instruction
system.cpu3.op_class::SimdCmp                       0      0.00%     76.09% # Class of executed instruction
system.cpu3.op_class::SimdCvt                       0      0.00%     76.09% # Class of executed instruction
system.cpu3.op_class::SimdMisc                      0      0.00%     76.09% # Class of executed instruction
system.cpu3.op_class::SimdMult                      0      0.00%     76.09% # Class of executed instruction
system.cpu3.op_class::SimdMultAcc                   0      0.00%     76.09% # Class of executed instruction
system.cpu3.op_class::SimdShift                     0      0.00%     76.09% # Class of executed instruction
system.cpu3.op_class::SimdShiftAcc                  0      0.00%     76.09% # Class of executed instruction
system.cpu3.op_class::SimdSqrt                      0      0.00%     76.09% # Class of executed instruction
system.cpu3.op_class::SimdFloatAdd                  0      0.00%     76.09% # Class of executed instruction
system.cpu3.op_class::SimdFloatAlu                  0      0.00%     76.09% # Class of executed instruction
system.cpu3.op_class::SimdFloatCmp                  0      0.00%     76.09% # Class of executed instruction
system.cpu3.op_class::SimdFloatCvt                  0      0.00%     76.09% # Class of executed instruction
system.cpu3.op_class::SimdFloatDiv                  0      0.00%     76.09% # Class of executed instruction
system.cpu3.op_class::SimdFloatMisc                 0      0.00%     76.09% # Class of executed instruction
system.cpu3.op_class::SimdFloatMult                 0      0.00%     76.09% # Class of executed instruction
system.cpu3.op_class::SimdFloatMultAcc              0      0.00%     76.09% # Class of executed instruction
system.cpu3.op_class::SimdFloatSqrt                 0      0.00%     76.09% # Class of executed instruction
system.cpu3.op_class::MemRead                  255636     15.02%     91.10% # Class of executed instruction
system.cpu3.op_class::MemWrite                 151409      8.90%    100.00% # Class of executed instruction
system.cpu3.op_class::IprAccess                     0      0.00%    100.00% # Class of executed instruction
system.cpu3.op_class::InstPrefetch                  0      0.00%    100.00% # Class of executed instruction
system.cpu3.op_class::total                   1702102                       # Class of executed instruction
system.iobus.trans_dist::ReadReq                  710                       # Transaction distribution
system.iobus.trans_dist::ReadResp                 710                       # Transaction distribution
system.iobus.trans_dist::WriteReq                1409                       # Transaction distribution
system.iobus.trans_dist::WriteResp               1409                       # Transaction distribution
system.iobus.trans_dist::MessageReq                12                       # Transaction distribution
system.iobus.trans_dist::MessageResp               12                       # Transaction distribution
system.iobus.pkt_count_system.pc.south_bridge.io_apic.int_master::system.ruby.l1_cntrl0.sequencer.pio-slave-port            2                       # Packet count per connected master and slave (bytes)
system.iobus.pkt_count_system.pc.south_bridge.io_apic.int_master::system.ruby.l1_cntrl1.sequencer.pio-slave-port            2                       # Packet count per connected master and slave (bytes)
system.iobus.pkt_count_system.pc.south_bridge.io_apic.int_master::system.ruby.l1_cntrl2.sequencer.pio-slave-port            2                       # Packet count per connected master and slave (bytes)
system.iobus.pkt_count_system.pc.south_bridge.io_apic.int_master::system.ruby.l1_cntrl3.sequencer.pio-slave-port            2                       # Packet count per connected master and slave (bytes)
system.iobus.pkt_count_system.pc.south_bridge.io_apic.int_master::total            8                       # Packet count per connected master and slave (bytes)
system.iobus.pkt_count_system.ruby.l1_cntrl0.sequencer.mem-master-port::system.pc.south_bridge.io_apic.pio            8                       # Packet count per connected master and slave (bytes)
system.iobus.pkt_count_system.ruby.l1_cntrl0.sequencer.mem-master-port::system.ruby.l1_cntrl0.sequencer.pio-slave-port          592                       # Packet count per connected master and slave (bytes)
system.iobus.pkt_count_system.ruby.l1_cntrl0.sequencer.mem-master-port::system.ruby.l1_cntrl1.sequencer.pio-slave-port            2                       # Packet count per connected master and slave (bytes)
system.iobus.pkt_count_system.ruby.l1_cntrl0.sequencer.mem-master-port::system.ruby.l1_cntrl2.sequencer.pio-slave-port            2                       # Packet count per connected master and slave (bytes)
system.iobus.pkt_count_system.ruby.l1_cntrl0.sequencer.mem-master-port::system.ruby.l1_cntrl3.sequencer.pio-slave-port            2                       # Packet count per connected master and slave (bytes)
system.iobus.pkt_count_system.ruby.l1_cntrl0.sequencer.mem-master-port::total          606                       # Packet count per connected master and slave (bytes)
system.iobus.pkt_count_system.ruby.l1_cntrl1.sequencer.mem-master-port::system.pc.south_bridge.io_apic.pio            6                       # Packet count per connected master and slave (bytes)
system.iobus.pkt_count_system.ruby.l1_cntrl1.sequencer.mem-master-port::system.pc.com_1.pio         1854                       # Packet count per connected master and slave (bytes)
system.iobus.pkt_count_system.ruby.l1_cntrl1.sequencer.mem-master-port::system.ruby.l1_cntrl1.sequencer.pio-slave-port          582                       # Packet count per connected master and slave (bytes)
system.iobus.pkt_count_system.ruby.l1_cntrl1.sequencer.mem-master-port::system.ruby.l1_cntrl2.sequencer.pio-slave-port            2                       # Packet count per connected master and slave (bytes)
system.iobus.pkt_count_system.ruby.l1_cntrl1.sequencer.mem-master-port::total         2444                       # Packet count per connected master and slave (bytes)
system.iobus.pkt_count_system.ruby.l1_cntrl2.sequencer.mem-master-port::system.pc.south_bridge.io_apic.pio            8                       # Packet count per connected master and slave (bytes)
system.iobus.pkt_count_system.ruby.l1_cntrl2.sequencer.mem-master-port::system.ruby.l1_cntrl1.sequencer.pio-slave-port            2                       # Packet count per connected master and slave (bytes)
system.iobus.pkt_count_system.ruby.l1_cntrl2.sequencer.mem-master-port::system.ruby.l1_cntrl2.sequencer.pio-slave-port          594                       # Packet count per connected master and slave (bytes)
system.iobus.pkt_count_system.ruby.l1_cntrl2.sequencer.mem-master-port::system.ruby.l1_cntrl3.sequencer.pio-slave-port            4                       # Packet count per connected master and slave (bytes)
system.iobus.pkt_count_system.ruby.l1_cntrl2.sequencer.mem-master-port::total          608                       # Packet count per connected master and slave (bytes)
system.iobus.pkt_count_system.ruby.l1_cntrl3.sequencer.mem-master-port::system.pc.south_bridge.io_apic.pio            8                       # Packet count per connected master and slave (bytes)
system.iobus.pkt_count_system.ruby.l1_cntrl3.sequencer.mem-master-port::system.pc.com_1.pio            2                       # Packet count per connected master and slave (bytes)
system.iobus.pkt_count_system.ruby.l1_cntrl3.sequencer.mem-master-port::system.ruby.l1_cntrl0.sequencer.pio-slave-port            2                       # Packet count per connected master and slave (bytes)
system.iobus.pkt_count_system.ruby.l1_cntrl3.sequencer.mem-master-port::system.ruby.l1_cntrl3.sequencer.pio-slave-port          584                       # Packet count per connected master and slave (bytes)
system.iobus.pkt_count_system.ruby.l1_cntrl3.sequencer.mem-master-port::total          596                       # Packet count per connected master and slave (bytes)
system.iobus.pkt_count::total                    4262                       # Packet count per connected master and slave (bytes)
system.iobus.pkt_size_system.pc.south_bridge.io_apic.int_master::system.ruby.l1_cntrl0.sequencer.pio-slave-port            4                       # Cumulative packet size per connected master and slave (bytes)
system.iobus.pkt_size_system.pc.south_bridge.io_apic.int_master::system.ruby.l1_cntrl1.sequencer.pio-slave-port            4                       # Cumulative packet size per connected master and slave (bytes)
system.iobus.pkt_size_system.pc.south_bridge.io_apic.int_master::system.ruby.l1_cntrl2.sequencer.pio-slave-port            4                       # Cumulative packet size per connected master and slave (bytes)
system.iobus.pkt_size_system.pc.south_bridge.io_apic.int_master::system.ruby.l1_cntrl3.sequencer.pio-slave-port            4                       # Cumulative packet size per connected master and slave (bytes)
system.iobus.pkt_size_system.pc.south_bridge.io_apic.int_master::total           16                       # Cumulative packet size per connected master and slave (bytes)
system.iobus.pkt_size_system.ruby.l1_cntrl0.sequencer.mem-master-port::system.pc.south_bridge.io_apic.pio           16                       # Cumulative packet size per connected master and slave (bytes)
system.iobus.pkt_size_system.ruby.l1_cntrl0.sequencer.mem-master-port::system.ruby.l1_cntrl0.sequencer.pio-slave-port         1184                       # Cumulative packet size per connected master and slave (bytes)
system.iobus.pkt_size_system.ruby.l1_cntrl0.sequencer.mem-master-port::system.ruby.l1_cntrl1.sequencer.pio-slave-port            4                       # Cumulative packet size per connected master and slave (bytes)
system.iobus.pkt_size_system.ruby.l1_cntrl0.sequencer.mem-master-port::system.ruby.l1_cntrl2.sequencer.pio-slave-port            4                       # Cumulative packet size per connected master and slave (bytes)
system.iobus.pkt_size_system.ruby.l1_cntrl0.sequencer.mem-master-port::system.ruby.l1_cntrl3.sequencer.pio-slave-port            4                       # Cumulative packet size per connected master and slave (bytes)
system.iobus.pkt_size_system.ruby.l1_cntrl0.sequencer.mem-master-port::total         1212                       # Cumulative packet size per connected master and slave (bytes)
system.iobus.pkt_size_system.ruby.l1_cntrl1.sequencer.mem-master-port::system.pc.south_bridge.io_apic.pio           12                       # Cumulative packet size per connected master and slave (bytes)
system.iobus.pkt_size_system.ruby.l1_cntrl1.sequencer.mem-master-port::system.pc.com_1.pio          927                       # Cumulative packet size per connected master and slave (bytes)
system.iobus.pkt_size_system.ruby.l1_cntrl1.sequencer.mem-master-port::system.ruby.l1_cntrl1.sequencer.pio-slave-port         1164                       # Cumulative packet size per connected master and slave (bytes)
system.iobus.pkt_size_system.ruby.l1_cntrl1.sequencer.mem-master-port::system.ruby.l1_cntrl2.sequencer.pio-slave-port            4                       # Cumulative packet size per connected master and slave (bytes)
system.iobus.pkt_size_system.ruby.l1_cntrl1.sequencer.mem-master-port::total         2107                       # Cumulative packet size per connected master and slave (bytes)
system.iobus.pkt_size_system.ruby.l1_cntrl2.sequencer.mem-master-port::system.pc.south_bridge.io_apic.pio           16                       # Cumulative packet size per connected master and slave (bytes)
system.iobus.pkt_size_system.ruby.l1_cntrl2.sequencer.mem-master-port::system.ruby.l1_cntrl1.sequencer.pio-slave-port            4                       # Cumulative packet size per connected master and slave (bytes)
system.iobus.pkt_size_system.ruby.l1_cntrl2.sequencer.mem-master-port::system.ruby.l1_cntrl2.sequencer.pio-slave-port         1188                       # Cumulative packet size per connected master and slave (bytes)
system.iobus.pkt_size_system.ruby.l1_cntrl2.sequencer.mem-master-port::system.ruby.l1_cntrl3.sequencer.pio-slave-port            8                       # Cumulative packet size per connected master and slave (bytes)
system.iobus.pkt_size_system.ruby.l1_cntrl2.sequencer.mem-master-port::total         1216                       # Cumulative packet size per connected master and slave (bytes)
system.iobus.pkt_size_system.ruby.l1_cntrl3.sequencer.mem-master-port::system.pc.south_bridge.io_apic.pio           16                       # Cumulative packet size per connected master and slave (bytes)
system.iobus.pkt_size_system.ruby.l1_cntrl3.sequencer.mem-master-port::system.pc.com_1.pio            1                       # Cumulative packet size per connected master and slave (bytes)
system.iobus.pkt_size_system.ruby.l1_cntrl3.sequencer.mem-master-port::system.ruby.l1_cntrl0.sequencer.pio-slave-port            4                       # Cumulative packet size per connected master and slave (bytes)
system.iobus.pkt_size_system.ruby.l1_cntrl3.sequencer.mem-master-port::system.ruby.l1_cntrl3.sequencer.pio-slave-port         1168                       # Cumulative packet size per connected master and slave (bytes)
system.iobus.pkt_size_system.ruby.l1_cntrl3.sequencer.mem-master-port::total         1189                       # Cumulative packet size per connected master and slave (bytes)
system.iobus.pkt_size::total                     5740                       # Cumulative packet size per connected master and slave (bytes)
system.iobus.reqLayer8.occupancy                27996                       # Layer occupancy (ticks)
system.iobus.reqLayer8.utilization                0.0                       # Layer utilization (%)
system.iobus.reqLayer12.occupancy             1197500                       # Layer occupancy (ticks)
system.iobus.reqLayer12.utilization               0.0                       # Layer utilization (%)
system.iobus.reqLayer17.occupancy              739497                       # Layer occupancy (ticks)
system.iobus.reqLayer17.utilization               0.0                       # Layer utilization (%)
system.iobus.reqLayer18.occupancy              731000                       # Layer occupancy (ticks)
system.iobus.reqLayer18.utilization               0.0                       # Layer utilization (%)
system.iobus.reqLayer19.occupancy              796760                       # Layer occupancy (ticks)
system.iobus.reqLayer19.utilization               0.0                       # Layer utilization (%)
system.iobus.reqLayer20.occupancy              735000                       # Layer occupancy (ticks)
system.iobus.reqLayer20.utilization               0.0                       # Layer utilization (%)
system.iobus.respLayer0.occupancy                5500                       # Layer occupancy (ticks)
system.iobus.respLayer0.utilization               0.0                       # Layer utilization (%)
system.iobus.respLayer2.occupancy              456000                       # Layer occupancy (ticks)
system.iobus.respLayer2.utilization               0.0                       # Layer utilization (%)
system.iobus.respLayer4.occupancy             2064500                       # Layer occupancy (ticks)
system.iobus.respLayer4.utilization               0.0                       # Layer utilization (%)
system.iobus.respLayer6.occupancy              457500                       # Layer occupancy (ticks)
system.iobus.respLayer6.utilization               0.0                       # Layer utilization (%)
system.iobus.respLayer8.occupancy              447000                       # Layer occupancy (ticks)
system.iobus.respLayer8.utilization               0.0                       # Layer utilization (%)
system.pc.south_bridge.ide.disks.dma_read_full_pages            0                       # Number of full page size DMA reads (not PRD).
system.pc.south_bridge.ide.disks.dma_read_bytes            0                       # Number of bytes transfered via DMA reads (not PRD).
system.pc.south_bridge.ide.disks.dma_read_txs            0                       # Number of DMA read transactions (not PRD).
system.pc.south_bridge.ide.disks.dma_write_full_pages            0                       # Number of full page size DMA writes.
system.pc.south_bridge.ide.disks.dma_write_bytes            0                       # Number of bytes transfered via DMA writes.
system.pc.south_bridge.ide.disks.dma_write_txs            0                       # Number of DMA write transactions.
system.ruby.clk_domain.clock                      500                       # Clock period in ticks
system.ruby.outstanding_req_hist_seqr::bucket_size            1                      
system.ruby.outstanding_req_hist_seqr::max_bucket            9                      
system.ruby.outstanding_req_hist_seqr::samples    936061428                      
system.ruby.outstanding_req_hist_seqr::mean     1.000000                      
system.ruby.outstanding_req_hist_seqr::gmean     1.000000                      
system.ruby.outstanding_req_hist_seqr::stdev     0.000506                      
system.ruby.outstanding_req_hist_seqr    |           0      0.00%      0.00% |   936061188    100.00%    100.00% |         240      0.00%    100.00% |           0      0.00%    100.00% |           0      0.00%    100.00% |           0      0.00%    100.00% |           0      0.00%    100.00% |           0      0.00%    100.00% |           0      0.00%    100.00% |           0      0.00%    100.00%
system.ruby.outstanding_req_hist_seqr::total    936061428                      
system.ruby.latency_hist_seqr::bucket_size          256                      
system.ruby.latency_hist_seqr::max_bucket         2559                      
system.ruby.latency_hist_seqr::samples      936061428                      
system.ruby.latency_hist_seqr::mean          1.448139                      
system.ruby.latency_hist_seqr::gmean         1.031102                      
system.ruby.latency_hist_seqr::stdev         8.140648                      
system.ruby.latency_hist_seqr            |   935965065     99.99%     99.99% |       58148      0.01%    100.00% |       35460      0.00%    100.00% |        2045      0.00%    100.00% |         573      0.00%    100.00% |         118      0.00%    100.00% |          16      0.00%    100.00% |           1      0.00%    100.00% |           2      0.00%    100.00% |           0      0.00%    100.00%
system.ruby.latency_hist_seqr::total        936061428                      
system.ruby.hit_latency_hist_seqr::bucket_size            2                      
system.ruby.hit_latency_hist_seqr::max_bucket           19                      
system.ruby.hit_latency_hist_seqr::samples    933242697                      
system.ruby.hit_latency_hist_seqr::mean      1.068187                      
system.ruby.hit_latency_hist_seqr::gmean     1.016485                      
system.ruby.hit_latency_hist_seqr::stdev     0.822934                      
system.ruby.hit_latency_hist_seqr        |   926879190     99.32%     99.32% |           0      0.00%     99.32% |           0      0.00%     99.32% |           0      0.00%     99.32% |           0      0.00%     99.32% |     6363507      0.68%    100.00% |           0      0.00%    100.00% |           0      0.00%    100.00% |           0      0.00%    100.00% |           0      0.00%    100.00%
system.ruby.hit_latency_hist_seqr::total    933242697                      
system.ruby.miss_latency_hist_seqr::bucket_size          256                      
[...]
system.ruby.L1Cache_Controller.O.Other_GETX::total         8126                      
system.ruby.L1Cache_Controller.O.Other_GETS |        3044     20.10%     20.10% |        6442     42.53%     62.62% |        2593     17.12%     79.74% |        3069     20.26%    100.00%
system.ruby.L1Cache_Controller.O.Other_GETS::total        15148                      
system.ruby.L1Cache_Controller.M.Load    |      150498      0.54%      0.54% |       95197      0.34%      0.88% |    27505162     98.77%     99.65% |       96349      0.35%    100.00%
system.ruby.L1Cache_Controller.M.Load::total     27847206                      
system.ruby.L1Cache_Controller.M.Ifetch  |     4274750      0.57%      0.57% |      103791      0.01%      0.58% |   746934563     99.38%     99.96% |      268727      0.04%    100.00%
system.ruby.L1Cache_Controller.M.Ifetch::total    751581831                      
system.ruby.L1Cache_Controller.M.Store   |       15740      2.63%      2.63% |        3391      0.57%      3.20% |      574432     95.93%     99.13% |        5216      0.87%    100.00%
system.ruby.L1Cache_Controller.M.Store::total       598779                      
system.ruby.L1Cache_Controller.M.L2_Replacement |        1935      0.18%      0.18% |         140      0.01%      0.19% |     1067389     99.76%     99.95% |         502      0.05%    100.00%
system.ruby.L1Cache_Controller.M.L2_Replacement::total      1069966                      
system.ruby.L1Cache_Controller.M.L1_to_L2 |       10050      0.46%      0.46% |        7232      0.33%      0.79% |     2167476     98.90%     99.69% |        6899      0.31%    100.00%
system.ruby.L1Cache_Controller.M.L1_to_L2::total      2191657                      
system.ruby.L1Cache_Controller.M.Trigger_L2_to_L1D |        2141      0.19%      0.19% |        2334      0.21%      0.41% |     1091969     99.43%     99.83% |        1819      0.17%    100.00%
system.ruby.L1Cache_Controller.M.Trigger_L2_to_L1D::total      1098263                      
system.ruby.L1Cache_Controller.M.Trigger_L2_to_L1I |        2837     32.37%     32.37% |         310      3.54%     35.90% |        4546     51.87%     87.77% |        1072     12.23%    100.00%
system.ruby.L1Cache_Controller.M.Trigger_L2_to_L1I::total         8765                      
system.ruby.L1Cache_Controller.M.Other_GETX |         629     24.02%     24.02% |         463     17.68%     41.70% |         550     21.00%     62.70% |         977     37.30%    100.00%
system.ruby.L1Cache_Controller.M.Other_GETX::total         2619                      
system.ruby.L1Cache_Controller.M.Other_GETS |        3406     24.22%     24.22% |        5881     41.83%     66.05% |        1751     12.45%     78.51% |        3022     21.49%    100.00%
system.ruby.L1Cache_Controller.M.Other_GETS::total        14060                      
system.ruby.L1Cache_Controller.M.Merged_GETS |          44     41.51%     41.51% |          40     37.74%     79.25% |          20     18.87%     98.11% |           2      1.89%    100.00%
system.ruby.L1Cache_Controller.M.Merged_GETS::total          106                      
system.ruby.L1Cache_Controller.MM.Load   |     2163483      3.12%      3.12% |      472900      0.68%      3.80% |    66196718     95.38%     99.18% |      567646      0.82%    100.00%
system.ruby.L1Cache_Controller.MM.Load::total     69400747                      
system.ruby.L1Cache_Controller.MM.Store  |     2040928      3.54%      3.54% |      481496      0.83%      4.37% |    54553143     94.50%     98.87% |      654489      1.13%    100.00%
system.ruby.L1Cache_Controller.MM.Store::total     57730056                      
system.ruby.L1Cache_Controller.MM.L2_Replacement |       10304      0.61%      0.61% |         488      0.03%      0.64% |     1685887     99.26%     99.90% |        1772      0.10%    100.00%
system.ruby.L1Cache_Controller.MM.L2_Replacement::total      1698451                      
system.ruby.L1Cache_Controller.MM.L1_to_L2 |       93918      1.35%      1.35% |       15725      0.23%      1.58% |     6819560     98.10%     99.68% |       22281      0.32%    100.00%
system.ruby.L1Cache_Controller.MM.L1_to_L2::total      6951484                      
system.ruby.L1Cache_Controller.MM.Trigger_L2_to_L1D |       65580      1.26%      1.26% |        6604      0.13%      1.39% |     5121885     98.44%     99.83% |        9097      0.17%    100.00%
system.ruby.L1Cache_Controller.MM.Trigger_L2_to_L1D::total      5203166                      
system.ruby.L1Cache_Controller.MM.Other_GETX |        5134     39.41%     39.41% |        1646     12.64%     52.05% |        5037     38.67%     90.71% |        1210      9.29%    100.00%
system.ruby.L1Cache_Controller.MM.Other_GETX::total        13027                      
system.ruby.L1Cache_Controller.MM.Other_GETS |        9080     33.69%     33.69% |        3389     12.58%     46.27% |       11241     41.71%     87.98% |        3239     12.02%    100.00%
system.ruby.L1Cache_Controller.MM.Other_GETS::total        26949                      
system.ruby.L1Cache_Controller.MM.Merged_GETS |         138     34.24%     34.24% |          70     17.37%     51.61% |         103     25.56%     77.17% |          92     22.83%    100.00%
system.ruby.L1Cache_Controller.MM.Merged_GETS::total          403                      
system.ruby.L1Cache_Controller.SR.Load   |        5234      7.42%      7.42% |        2308      3.27%     10.69% |       56441     80.02%     90.71% |        6555      9.29%    100.00%
system.ruby.L1Cache_Controller.SR.Load::total        70538                      
system.ruby.L1Cache_Controller.SR.Ifetch |       23715     27.71%     27.71% |       15485     18.10%     45.81% |       16918     19.77%     65.58% |       29456     34.42%    100.00%
system.ruby.L1Cache_Controller.SR.Ifetch::total        85574                      
system.ruby.L1Cache_Controller.SR.Store  |          82     21.13%     21.13% |          74     19.07%     40.21% |         100     25.77%     65.98% |         132     34.02%    100.00%
system.ruby.L1Cache_Controller.SR.Store::total          388                      
system.ruby.L1Cache_Controller.OR.Load   |        1399     13.66%     13.66% |        1822     17.79%     31.44% |        6531     63.75%     95.20% |         492      4.80%    100.00%
system.ruby.L1Cache_Controller.OR.Load::total        10244                      
system.ruby.L1Cache_Controller.OR.Ifetch |        5353     27.96%     27.96% |        5918     30.92%     58.88% |        7147     37.34%     96.22% |         724      3.78%    100.00%
system.ruby.L1Cache_Controller.OR.Ifetch::total        19142                      
system.ruby.L1Cache_Controller.OR.Store  |          36     25.71%     25.71% |          96     68.57%     94.29% |           2      1.43%     95.71% |           6      4.29%    100.00%
system.ruby.L1Cache_Controller.OR.Store::total          140                      
system.ruby.L1Cache_Controller.MR.Load   |        1629      0.15%      0.15% |        2061      0.19%      0.34% |     1091400     99.53%     99.87% |        1425      0.13%    100.00%
system.ruby.L1Cache_Controller.MR.Load::total      1096515                      
system.ruby.L1Cache_Controller.MR.Ifetch |        2837     32.37%     32.37% |         310      3.54%     35.90% |        4546     51.87%     87.77% |        1072     12.23%    100.00%
system.ruby.L1Cache_Controller.MR.Ifetch::total         8765                      
system.ruby.L1Cache_Controller.MR.Store  |         512     29.29%     29.29% |         273     15.62%     44.91% |         569     32.55%     77.46% |         394     22.54%    100.00%
system.ruby.L1Cache_Controller.MR.Store::total         1748                      
system.ruby.L1Cache_Controller.MMR.Load  |       47087      1.56%      1.56% |        3077      0.10%      1.66% |     2962957     98.15%     99.81% |        5587      0.19%    100.00%
system.ruby.L1Cache_Controller.MMR.Load::total      3018708                      
system.ruby.L1Cache_Controller.MMR.Store |       18493      0.85%      0.85% |        3527      0.16%      1.01% |     2158928     98.83%     99.84% |        3510      0.16%    100.00%
system.ruby.L1Cache_Controller.MMR.Store::total      2184458                      
system.ruby.L1Cache_Controller.IM.Ack    |       32327      0.94%      0.94% |       15460      0.45%      1.40% |     3364080     98.24%     99.64% |       12435      0.36%    100.00%
system.ruby.L1Cache_Controller.IM.Ack::total      3424302                      
system.ruby.L1Cache_Controller.IM.Data   |        1133     42.51%     42.51% |         472     17.71%     60.23% |         262      9.83%     70.06% |         798     29.94%    100.00%
system.ruby.L1Cache_Controller.IM.Data::total         2665                      
system.ruby.L1Cache_Controller.IM.Exclusive_Data |       13617      1.18%      1.18% |        7459      0.65%      1.83% |     1123082     97.54%     99.37% |        7302      0.63%    100.00%
system.ruby.L1Cache_Controller.IM.Exclusive_Data::total      1151460                      
system.ruby.L1Cache_Controller.SM.Ack    |        1237     25.08%     25.08% |        1257     25.48%     50.56% |         991     20.09%     70.65% |        1448     29.35%    100.00%
system.ruby.L1Cache_Controller.SM.Ack::total         4933                      
system.ruby.L1Cache_Controller.SM.Data   |        1984     35.61%     35.61% |        1148     20.60%     56.21% |         856     15.36%     71.57% |        1584     28.43%    100.00%
system.ruby.L1Cache_Controller.SM.Data::total         5572                      
system.ruby.L1Cache_Controller.OM.Ack    |         690     45.82%     45.82% |         531     35.26%     81.08% |         102      6.77%     87.85% |         183     12.15%    100.00%
system.ruby.L1Cache_Controller.OM.Ack::total         1506                      
system.ruby.L1Cache_Controller.OM.All_acks_no_sharers |         230     45.82%     45.82% |         177     35.26%     81.08% |          34      6.77%     87.85% |          61     12.15%    100.00%
system.ruby.L1Cache_Controller.OM.All_acks_no_sharers::total          502                      
system.ruby.L1Cache_Controller.ISM.Ack   |        4475     46.62%     46.62% |        1375     14.33%     60.95% |         964     10.04%     70.99% |        2784     29.01%    100.00%
system.ruby.L1Cache_Controller.ISM.Ack::total         9598                      
system.ruby.L1Cache_Controller.ISM.All_acks_no_sharers |        3117     37.84%     37.84% |        1620     19.67%     57.51% |        1118     13.57%     71.08% |        2382     28.92%    100.00%
system.ruby.L1Cache_Controller.ISM.All_acks_no_sharers::total         8237                      
system.ruby.L1Cache_Controller.M_W.Load  |          57     24.78%     24.78% |          55     23.91%     48.70% |          48     20.87%     69.57% |          70     30.43%    100.00%
system.ruby.L1Cache_Controller.M_W.Load::total          230                      
system.ruby.L1Cache_Controller.M_W.Store |          96     72.18%     72.18% |          28     21.05%     93.23% |           5      3.76%     96.99% |           4      3.01%    100.00%
system.ruby.L1Cache_Controller.M_W.Store::total          133                      
system.ruby.L1Cache_Controller.M_W.Ack   |       11898     42.16%     42.16% |        7650     27.11%     69.26% |        4651     16.48%     85.74% |        4024     14.26%    100.00%
system.ruby.L1Cache_Controller.M_W.Ack::total        28223                      
system.ruby.L1Cache_Controller.M_W.All_acks_no_sharers |       22922      1.35%      1.35% |       11637      0.69%      2.04% |     1646589     97.25%     99.29% |       12038      0.71%    100.00%
system.ruby.L1Cache_Controller.M_W.All_acks_no_sharers::total      1693186                      
system.ruby.L1Cache_Controller.MM_W.Load |           0      0.00%      0.00% |           1    100.00%    100.00% |           0      0.00%    100.00% |           0      0.00%    100.00%
system.ruby.L1Cache_Controller.MM_W.Load::total            1                      
system.ruby.L1Cache_Controller.MM_W.Store |        3108     47.19%     47.19% |        1472     22.35%     69.54% |         632      9.60%     79.14% |        1374     20.86%    100.00%
system.ruby.L1Cache_Controller.MM_W.Store::total         6586                      
system.ruby.L1Cache_Controller.MM_W.Ack  |        4744     28.55%     28.55% |        3764     22.65%     51.19% |        3061     18.42%     69.61% |        5050     30.39%    100.00%
system.ruby.L1Cache_Controller.MM_W.Ack::total        16619                      
system.ruby.L1Cache_Controller.MM_W.All_acks_no_sharers |       13713      1.19%      1.19% |        7487      0.65%      1.84% |     1123087     97.52%     99.37% |        7306      0.63%    100.00%
system.ruby.L1Cache_Controller.MM_W.All_acks_no_sharers::total      1151593                      
system.ruby.L1Cache_Controller.IS.Other_GETS |           1    100.00%    100.00% |           0      0.00%    100.00% |           0      0.00%    100.00% |           0      0.00%    100.00%
system.ruby.L1Cache_Controller.IS.Other_GETS::total            1                      
system.ruby.L1Cache_Controller.IS.Ack    |       53237      1.05%      1.05% |       27876      0.55%      1.60% |     4943822     97.63%     99.23% |       38739      0.77%    100.00%
system.ruby.L1Cache_Controller.IS.Ack::total      5063674                      
system.ruby.L1Cache_Controller.IS.Shared_Ack |        3783     12.49%     12.49% |        7694     25.41%     37.90% |       11741     38.77%     76.68% |        7062     23.32%    100.00%
system.ruby.L1Cache_Controller.IS.Shared_Ack::total        30280                      
system.ruby.L1Cache_Controller.IS.Data   |        1747     12.98%     12.98% |        3170     23.55%     36.53% |        5271     39.16%     75.69% |        3272     24.31%    100.00%
system.ruby.L1Cache_Controller.IS.Data::total        13460                      
system.ruby.L1Cache_Controller.IS.Shared_Data |        7831     26.35%     26.35% |        5496     18.49%     44.84% |        8254     27.77%     72.62% |        8138     27.38%    100.00%
system.ruby.L1Cache_Controller.IS.Shared_Data::total        29719                      
system.ruby.L1Cache_Controller.IS.Exclusive_Data |       23018      1.36%      1.36% |       11665      0.69%      2.05% |     1646594     97.24%     99.29% |       12042      0.71%    100.00%
system.ruby.L1Cache_Controller.IS.Exclusive_Data::total      1693319                      
system.ruby.L1Cache_Controller.SS.Load   |          29      5.32%      5.32% |          28      5.14%     10.46% |         116     21.28%     31.74% |         372     68.26%    100.00%
system.ruby.L1Cache_Controller.SS.Load::total          545                      
system.ruby.L1Cache_Controller.SS.Ifetch |        1633     26.20%     26.20% |         873     14.01%     40.21% |        1941     31.14%     71.35% |        1786     28.65%    100.00%
system.ruby.L1Cache_Controller.SS.Ifetch::total         6233                      
system.ruby.L1Cache_Controller.SS.Store  |          23     50.00%     50.00% |          14     30.43%     80.43% |           6     13.04%     93.48% |           3      6.52%    100.00%
system.ruby.L1Cache_Controller.SS.Store::total           46                      
system.ruby.L1Cache_Controller.SS.Ack    |        4920     25.50%     25.50% |        3494     18.11%     43.61% |        5830     30.22%     73.82% |        5051     26.18%    100.00%
system.ruby.L1Cache_Controller.SS.Ack::total        19295                      
system.ruby.L1Cache_Controller.SS.Shared_Ack |        3298     32.33%     32.33% |        1526     14.96%     47.29% |        2403     23.56%     70.85% |        2974     29.15%    100.00%
system.ruby.L1Cache_Controller.SS.Shared_Ack::total        10201                      
system.ruby.L1Cache_Controller.SS.All_acks |        9054     21.41%     21.41% |        8568     20.26%     41.68% |       13383     31.65%     73.33% |       11275     26.67%    100.00%
system.ruby.L1Cache_Controller.SS.All_acks::total        42280                      
system.ruby.L1Cache_Controller.SS.All_acks_no_sharers |         524     58.29%     58.29% |          98     10.90%     69.19% |         142     15.80%     84.98% |         135     15.02%    100.00%
system.ruby.L1Cache_Controller.SS.All_acks_no_sharers::total          899                      
system.ruby.L1Cache_Controller.OI.Load   |          12     70.59%     70.59% |           1      5.88%     76.47% |           4     23.53%    100.00% |           0      0.00%    100.00%
system.ruby.L1Cache_Controller.OI.Load::total           17                      
system.ruby.L1Cache_Controller.OI.Ifetch |           4     50.00%     50.00% |           1     12.50%     62.50% |           2     25.00%     87.50% |           1     12.50%    100.00%
system.ruby.L1Cache_Controller.OI.Ifetch::total            8                      
system.ruby.L1Cache_Controller.OI.Store  |           1    100.00%    100.00% |           0      0.00%    100.00% |           0      0.00%    100.00% |           0      0.00%    100.00%
system.ruby.L1Cache_Controller.OI.Store::total            1                      
system.ruby.L1Cache_Controller.OI.Writeback_Ack |         975     20.99%     20.99% |         160      3.44%     24.43% |        3187     68.61%     93.05% |         323      6.95%    100.00%
system.ruby.L1Cache_Controller.OI.Writeback_Ack::total         4645                      
system.ruby.L1Cache_Controller.MI.Load   |         106      0.59%      0.59% |           0      0.00%      0.59% |       17975     99.32%     99.91% |          17      0.09%    100.00%
system.ruby.L1Cache_Controller.MI.Load::total        18098                      
system.ruby.L1Cache_Controller.MI.Ifetch |           0      0.00%      0.00% |           0      0.00%      0.00% |           0      0.00%      0.00% |           3    100.00%    100.00%
system.ruby.L1Cache_Controller.MI.Ifetch::total            3                      
system.ruby.L1Cache_Controller.MI.Store  |          48      0.17%      0.17% |           3      0.01%      0.18% |       27755     99.78%     99.97% |           9      0.03%    100.00%
system.ruby.L1Cache_Controller.MI.Store::total        27815                      
system.ruby.L1Cache_Controller.MI.Writeback_Ack |       12239      0.44%      0.44% |         628      0.02%      0.46% |     2753276     99.45%     99.92% |        2274      0.08%    100.00%
system.ruby.L1Cache_Controller.MI.Writeback_Ack::total      2768417                      
system.ruby.L1Cache_Controller.ST.Complete_L2_to_L1 |       29031     18.55%     18.55% |       17867     11.42%     29.97% |       73459     46.94%     76.91% |       36143     23.09%    100.00%
system.ruby.L1Cache_Controller.ST.Complete_L2_to_L1::total       156500                      
system.ruby.L1Cache_Controller.OT.Complete_L2_to_L1 |        6788     22.99%     22.99% |        7836     26.54%     49.53% |       13680     46.33%     95.86% |        1222      4.14%    100.00%
system.ruby.L1Cache_Controller.OT.Complete_L2_to_L1::total        29526                      
system.ruby.L1Cache_Controller.MT.Complete_L2_to_L1 |        4978      0.45%      0.45% |        2644      0.24%      0.69% |     1096515     99.05%     99.74% |        2891      0.26%    100.00%
system.ruby.L1Cache_Controller.MT.Complete_L2_to_L1::total      1107028                      
system.ruby.L1Cache_Controller.MMT.Complete_L2_to_L1 |       65580      1.26%      1.26% |        6604      0.13%      1.39% |     5121885     98.44%     99.83% |        9097      0.17%    100.00%
system.ruby.L1Cache_Controller.MMT.Complete_L2_to_L1::total      5203166                      

---------- End Simulation Statistics   ----------
