
---------- Begin Simulation Statistics ----------
sim_seconds                                  3.109069                       # Number of seconds simulated
sim_ticks                                3109069392000                       # Number of ticks simulated
final_tick                               55450728973001                       # Number of ticks from beginning of simulation (restored from checkpoints and never reset)
sim_freq                                 1000000000000                       # Frequency of simulated ticks
host_inst_rate                                 120434                       # Simulator instruction rate (inst/s)
host_op_rate                                   179836                       # Simulator op (including micro ops) rate (op/s)
host_tick_rate                              514116899                       # Simulator tick rate (ticks/s)
host_mem_usage                                2044684                       # Number of bytes of host memory used
host_seconds                                  6047.40                       # Real time elapsed on the host
sim_insts                                   728312166                       # Number of instructions simulated
sim_ops                                    1087542227                       # Number of ops (including micro ops) simulated
system.voltage_domain.voltage                       1                       # Voltage in Volts
system.clk_domain.clock                          1000                       # Clock period in ticks
system.mem_ctrls.bytes_read::ruby.dir_cntrl0   2768346368                       # Number of bytes read from this memory
system.mem_ctrls.bytes_read::total         2768346368                       # Number of bytes read from this memory
system.mem_ctrls.bytes_written::ruby.dir_cntrl0   2768339712                       # Number of bytes written to this memory
system.mem_ctrls.bytes_written::total      2768339712                       # Number of bytes written to this memory
system.mem_ctrls.num_reads::ruby.dir_cntrl0     21627706                       # Number of read requests responded to by this memory
system.mem_ctrls.num_reads::total            21627706                       # Number of read requests responded to by this memory
system.mem_ctrls.num_writes::ruby.dir_cntrl0     21627654                       # Number of write requests responded to by this memory
system.mem_ctrls.num_writes::total           21627654                       # Number of write requests responded to by this memory
system.mem_ctrls.bw_read::ruby.dir_cntrl0    890409965                       # Total read bandwidth from this memory (bytes/s)
system.mem_ctrls.bw_read::total             890409965                       # Total read bandwidth from this memory (bytes/s)
system.mem_ctrls.bw_write::ruby.dir_cntrl0    890407824                       # Write bandwidth from this memory (bytes/s)
system.mem_ctrls.bw_write::total            890407824                       # Write bandwidth from this memory (bytes/s)
system.mem_ctrls.bw_total::ruby.dir_cntrl0   1780817789                       # Total bandwidth to/from this memory (bytes/s)
system.mem_ctrls.bw_total::total           1780817789                       # Total bandwidth to/from this memory (bytes/s)
system.mem_ctrls.readReqs                    21627706                       # Number of read requests accepted
system.mem_ctrls.writeReqs                   21627654                       # Number of write requests accepted
system.mem_ctrls.readBursts                  43255412                       # Number of DRAM read bursts, including those serviced by the write queue
system.mem_ctrls.writeBursts                 43255308                       # Number of DRAM write bursts, including those merged in the write queue
system.mem_ctrls.bytesReadDRAM             2725008128                       # Total number of bytes read from DRAM
system.mem_ctrls.bytesReadWrQ                43338240                       # Total number of bytes read from write queue
system.mem_ctrls.bytesWritten              2765571968                       # Total number of bytes written to DRAM
system.mem_ctrls.bytesReadSys              2768346368                       # Total read bytes from the system interface side
system.mem_ctrls.bytesWrittenSys           2768339712                       # Total written bytes from the system interface side
system.mem_ctrls.servicedByWrQ                 677160                       # Number of DRAM read bursts serviced by the write queue
system.mem_ctrls.mergedWrBursts                 43248                       # Number of DRAM write bursts merged with an existing one
system.mem_ctrls.neitherReadNorWriteReqs            0                       # Number of requests that are neither read nor write
system.mem_ctrls.perBankRdBursts::0           2196855                       # Per bank write bursts
system.mem_ctrls.perBankRdBursts::1           2053881                       # Per bank write bursts
system.mem_ctrls.perBankRdBursts::2           2546372                       # Per bank write bursts
system.mem_ctrls.perBankRdBursts::3           2193473                       # Per bank write bursts
system.mem_ctrls.perBankRdBursts::4           2695859                       # Per bank write bursts
system.mem_ctrls.perBankRdBursts::5           2917794                       # Per bank write bursts
system.mem_ctrls.perBankRdBursts::6           4013737                       # Per bank write bursts
system.mem_ctrls.perBankRdBursts::7           3752792                       # Per bank write bursts
system.mem_ctrls.perBankRdBursts::8           3749407                       # Per bank write bursts
system.mem_ctrls.perBankRdBursts::9           3328995                       # Per bank write bursts
system.mem_ctrls.perBankRdBursts::10          1754901                       # Per bank write bursts
system.mem_ctrls.perBankRdBursts::11          2196857                       # Per bank write bursts
system.mem_ctrls.perBankRdBursts::12          2632582                       # Per bank write bursts
system.mem_ctrls.perBankRdBursts::13          1586895                       # Per bank write bursts
system.mem_ctrls.perBankRdBursts::14          1765590                       # Per bank write bursts
system.mem_ctrls.perBankRdBursts::15          3192262                       # Per bank write bursts
system.mem_ctrls.perBankWrBursts::0           2227830                       # Per bank write bursts
system.mem_ctrls.perBankWrBursts::1           2071737                       # Per bank write bursts
system.mem_ctrls.perBankWrBursts::2           2579633                       # Per bank write bursts
system.mem_ctrls.perBankWrBursts::3           2228339                       # Per bank write bursts
system.mem_ctrls.perBankWrBursts::4           2736003                       # Per bank write bursts
system.mem_ctrls.perBankWrBursts::5           2959963                       # Per bank write bursts
system.mem_ctrls.perBankWrBursts::6           4068068                       # Per bank write bursts
system.mem_ctrls.perBankWrBursts::7           3801623                       # Per bank write bursts
system.mem_ctrls.perBankWrBursts::8           3862093                       # Per bank write bursts
system.mem_ctrls.perBankWrBursts::9           3405457                       # Per bank write bursts
system.mem_ctrls.perBankWrBursts::10          1767787                       # Per bank write bursts
system.mem_ctrls.perBankWrBursts::11          2221012                       # Per bank write bursts
system.mem_ctrls.perBankWrBursts::12          2669942                       # Per bank write bursts
system.mem_ctrls.perBankWrBursts::13          1598071                       # Per bank write bursts
system.mem_ctrls.perBankWrBursts::14          1792266                       # Per bank write bursts
system.mem_ctrls.perBankWrBursts::15          3222238                       # Per bank write bursts
system.mem_ctrls.numRdRetry                         0                       # Number of times read queue was full causing retry
system.mem_ctrls.numWrRetry                         0                       # Number of times write queue was full causing retry
system.mem_ctrls.totGap                  3109069375500                       # Total gap between requests
system.mem_ctrls.readPktSize::0                     0                       # Read request sizes (log2)
system.mem_ctrls.readPktSize::1                     0                       # Read request sizes (log2)
system.mem_ctrls.readPktSize::2                     0                       # Read request sizes (log2)
system.mem_ctrls.readPktSize::3                     0                       # Read request sizes (log2)
system.mem_ctrls.readPktSize::4                     0                       # Read request sizes (log2)
system.mem_ctrls.readPktSize::5                     0                       # Read request sizes (log2)
system.mem_ctrls.readPktSize::6              43255412                       # Read request sizes (log2)
system.mem_ctrls.writePktSize::0                    0                       # Write request sizes (log2)
system.mem_ctrls.writePktSize::1                    0                       # Write request sizes (log2)
system.mem_ctrls.writePktSize::2                    0                       # Write request sizes (log2)
system.mem_ctrls.writePktSize::3                    0                       # Write request sizes (log2)
system.mem_ctrls.writePktSize::4                    0                       # Write request sizes (log2)
system.mem_ctrls.writePktSize::5                    0                       # Write request sizes (log2)
system.mem_ctrls.writePktSize::6             43255308                       # Write request sizes (log2)
system.mem_ctrls.rdQLenPdf::0                21198173                       # What read queue length does an incoming req see
system.mem_ctrls.rdQLenPdf::1                21193359                       # What read queue length does an incoming req see
system.mem_ctrls.rdQLenPdf::2                   98572                       # What read queue length does an incoming req see
system.mem_ctrls.rdQLenPdf::3                   88148                       # What read queue length does an incoming req see
system.mem_ctrls.rdQLenPdf::4                       0                       # What read queue length does an incoming req see
system.mem_ctrls.rdQLenPdf::5                       0                       # What read queue length does an incoming req see
system.mem_ctrls.rdQLenPdf::6                       0                       # What read queue length does an incoming req see
system.mem_ctrls.rdQLenPdf::7                       0                       # What read queue length does an incoming req see
system.mem_ctrls.rdQLenPdf::8                       0                       # What read queue length does an incoming req see
system.mem_ctrls.rdQLenPdf::9                       0                       # What read queue length does an incoming req see
system.mem_ctrls.rdQLenPdf::10                      0                       # What read queue length does an incoming req see
system.mem_ctrls.rdQLenPdf::11                      0                       # What read queue length does an incoming req see
system.mem_ctrls.rdQLenPdf::12                      0                       # What read queue length does an incoming req see
system.mem_ctrls.rdQLenPdf::13                      0                       # What read queue length does an incoming req see
system.mem_ctrls.rdQLenPdf::14                      0                       # What read queue length does an incoming req see
system.mem_ctrls.rdQLenPdf::15                      0                       # What read queue length does an incoming req see
system.mem_ctrls.rdQLenPdf::16                      0                       # What read queue length does an incoming req see
system.mem_ctrls.rdQLenPdf::17                      0                       # What read queue length does an incoming req see
system.mem_ctrls.rdQLenPdf::18                      0                       # What read queue length does an incoming req see
system.mem_ctrls.rdQLenPdf::19                      0                       # What read queue length does an incoming req see
system.mem_ctrls.rdQLenPdf::20                      0                       # What read queue length does an incoming req see
system.mem_ctrls.rdQLenPdf::21                      0                       # What read queue length does an incoming req see
system.mem_ctrls.rdQLenPdf::22                      0                       # What read queue length does an incoming req see
system.mem_ctrls.rdQLenPdf::23                      0                       # What read queue length does an incoming req see
system.mem_ctrls.rdQLenPdf::24                      0                       # What read queue length does an incoming req see
system.mem_ctrls.rdQLenPdf::25                      0                       # What read queue length does an incoming req see
system.mem_ctrls.rdQLenPdf::26                      0                       # What read queue length does an incoming req see
system.mem_ctrls.rdQLenPdf::27                      0                       # What read queue length does an incoming req see
system.mem_ctrls.rdQLenPdf::28                      0                       # What read queue length does an incoming req see
system.mem_ctrls.rdQLenPdf::29                      0                       # What read queue length does an incoming req see
system.mem_ctrls.rdQLenPdf::30                      0                       # What read queue length does an incoming req see
system.mem_ctrls.rdQLenPdf::31                      0                       # What read queue length does an incoming req see
system.mem_ctrls.wrQLenPdf::0                       0                       # What write queue length does an incoming req see
system.mem_ctrls.wrQLenPdf::1                       0                       # What write queue length does an incoming req see
system.mem_ctrls.wrQLenPdf::2                       0                       # What write queue length does an incoming req see
system.mem_ctrls.wrQLenPdf::3                       0                       # What write queue length does an incoming req see
system.mem_ctrls.wrQLenPdf::4                       0                       # What write queue length does an incoming req see
system.mem_ctrls.wrQLenPdf::5                       0                       # What write queue length does an incoming req see
system.mem_ctrls.wrQLenPdf::6                       0                       # What write queue length does an incoming req see
system.mem_ctrls.wrQLenPdf::7                       0                       # What write queue length does an incoming req see
system.mem_ctrls.wrQLenPdf::8                       0                       # What write queue length does an incoming req see
system.mem_ctrls.wrQLenPdf::9                       0                       # What write queue length does an incoming req see
system.mem_ctrls.wrQLenPdf::10                      0                       # What write queue length does an incoming req see
system.mem_ctrls.wrQLenPdf::11                      0                       # What write queue length does an incoming req see
system.mem_ctrls.wrQLenPdf::12                      0                       # What write queue length does an incoming req see
system.mem_ctrls.wrQLenPdf::13                      0                       # What write queue length does an incoming req see
system.mem_ctrls.wrQLenPdf::14                      0                       # What write queue length does an incoming req see
system.mem_ctrls.wrQLenPdf::15                  26445                       # What write queue length does an incoming req see
system.mem_ctrls.wrQLenPdf::16                  34265                       # What write queue length does an incoming req see
system.mem_ctrls.wrQLenPdf::17                1565386                       # What write queue length does an incoming req see
system.mem_ctrls.wrQLenPdf::18                2658256                       # What write queue length does an incoming req see
system.mem_ctrls.wrQLenPdf::19                2690490                       # What write queue length does an incoming req see
system.mem_ctrls.wrQLenPdf::20                2712216                       # What write queue length does an incoming req see
system.mem_ctrls.wrQLenPdf::21                2706925                       # What write queue length does an incoming req see
system.mem_ctrls.wrQLenPdf::22                2706283                       # What write queue length does an incoming req see
system.mem_ctrls.wrQLenPdf::23                2709826                       # What write queue length does an incoming req see
system.mem_ctrls.wrQLenPdf::24                2707760                       # What write queue length does an incoming req see
system.mem_ctrls.wrQLenPdf::25                2703196                       # What write queue length does an incoming req see
system.mem_ctrls.wrQLenPdf::26                2699958                       # What write queue length does an incoming req see
system.mem_ctrls.wrQLenPdf::27                2697481                       # What write queue length does an incoming req see
system.mem_ctrls.wrQLenPdf::28                2696151                       # What write queue length does an incoming req see
system.mem_ctrls.wrQLenPdf::29                2695357                       # What write queue length does an incoming req see
system.mem_ctrls.wrQLenPdf::30                2694796                       # What write queue length does an incoming req see
system.mem_ctrls.wrQLenPdf::31                2694479                       # What write queue length does an incoming req see
system.mem_ctrls.wrQLenPdf::32                2694262                       # What write queue length does an incoming req see
system.mem_ctrls.wrQLenPdf::33                1116654                       # What write queue length does an incoming req see
system.mem_ctrls.wrQLenPdf::34                    988                       # What write queue length does an incoming req see
system.mem_ctrls.wrQLenPdf::35                    426                       # What write queue length does an incoming req see
system.mem_ctrls.wrQLenPdf::36                    186                       # What write queue length does an incoming req see
system.mem_ctrls.wrQLenPdf::37                     98                       # What write queue length does an incoming req see
system.mem_ctrls.wrQLenPdf::38                     66                       # What write queue length does an incoming req see
system.mem_ctrls.wrQLenPdf::39                     35                       # What write queue length does an incoming req see
system.mem_ctrls.wrQLenPdf::40                     33                       # What write queue length does an incoming req see
system.mem_ctrls.wrQLenPdf::41                     15                       # What write queue length does an incoming req see
system.mem_ctrls.wrQLenPdf::42                     12                       # What write queue length does an incoming req see
system.mem_ctrls.wrQLenPdf::43                      6                       # What write queue length does an incoming req see
system.mem_ctrls.wrQLenPdf::44                      5                       # What write queue length does an incoming req see
system.mem_ctrls.wrQLenPdf::45                      2                       # What write queue length does an incoming req see
system.mem_ctrls.wrQLenPdf::46                      2                       # What write queue length does an incoming req see
system.mem_ctrls.wrQLenPdf::47                      0                       # What write queue length does an incoming req see
system.mem_ctrls.wrQLenPdf::48                      0                       # What write queue length does an incoming req see
system.mem_ctrls.wrQLenPdf::49                      0                       # What write queue length does an incoming req see
system.mem_ctrls.wrQLenPdf::50                      0                       # What write queue length does an incoming req see
system.mem_ctrls.wrQLenPdf::51                      0                       # What write queue length does an incoming req see
system.mem_ctrls.wrQLenPdf::52                      0                       # What write queue length does an incoming req see
system.mem_ctrls.wrQLenPdf::53                      0                       # What write queue length does an incoming req see
system.mem_ctrls.wrQLenPdf::54                      0                       # What write queue length does an incoming req see
system.mem_ctrls.wrQLenPdf::55                      0                       # What write queue length does an incoming req see
system.mem_ctrls.wrQLenPdf::56                      0                       # What write queue length does an incoming req see
system.mem_ctrls.wrQLenPdf::57                      0                       # What write queue length does an incoming req see
system.mem_ctrls.wrQLenPdf::58                      0                       # What write queue length does an incoming req see
system.mem_ctrls.wrQLenPdf::59                      0                       # What write queue length does an incoming req see
system.mem_ctrls.wrQLenPdf::60                      0                       # What write queue length does an incoming req see
system.mem_ctrls.wrQLenPdf::61                      0                       # What write queue length does an incoming req see
system.mem_ctrls.wrQLenPdf::62                      0                       # What write queue length does an incoming req see
system.mem_ctrls.wrQLenPdf::63                      0                       # What write queue length does an incoming req see
system.mem_ctrls.bytesPerActivate::samples     32050917                       # Bytes accessed per row activation
system.mem_ctrls.bytesPerActivate::mean    171.308024                       # Bytes accessed per row activation
system.mem_ctrls.bytesPerActivate::gmean   150.608304                       # Bytes accessed per row activation
system.mem_ctrls.bytesPerActivate::stdev   125.773705                       # Bytes accessed per row activation
system.mem_ctrls.bytesPerActivate::0-127       887803      2.77%      2.77% # Bytes accessed per row activation
system.mem_ctrls.bytesPerActivate::128-255     25191170     78.60%     81.37% # Bytes accessed per row activation
system.mem_ctrls.bytesPerActivate::256-383      3561597     11.11%     92.48% # Bytes accessed per row activation
system.mem_ctrls.bytesPerActivate::384-511      1295259      4.04%     96.52% # Bytes accessed per row activation
system.mem_ctrls.bytesPerActivate::512-639       486230      1.52%     98.04% # Bytes accessed per row activation
system.mem_ctrls.bytesPerActivate::640-767       204940      0.64%     98.68% # Bytes accessed per row activation
system.mem_ctrls.bytesPerActivate::768-895        99287      0.31%     98.99% # Bytes accessed per row activation
system.mem_ctrls.bytesPerActivate::896-1023        57070      0.18%     99.17% # Bytes accessed per row activation
system.mem_ctrls.bytesPerActivate::1024-1151       267561      0.83%    100.00% # Bytes accessed per row activation
system.mem_ctrls.bytesPerActivate::total     32050917                       # Bytes accessed per row activation
system.mem_ctrls.rdPerTurnAround::samples      2694147                       # Reads before turning the bus around for writes
system.mem_ctrls.rdPerTurnAround::mean      15.803983                       # Reads before turning the bus around for writes
system.mem_ctrls.rdPerTurnAround::stdev      1.516591                       # Reads before turning the bus around for writes
system.mem_ctrls.rdPerTurnAround::0-3            1181      0.04%      0.04% # Reads before turning the bus around for writes
system.mem_ctrls.rdPerTurnAround::4-7            6081      0.23%      0.27% # Reads before turning the bus around for writes
system.mem_ctrls.rdPerTurnAround::8-11          19237      0.71%      0.98% # Reads before turning the bus around for writes
system.mem_ctrls.rdPerTurnAround::12-15        250093      9.28%     10.27% # Reads before turning the bus around for writes
system.mem_ctrls.rdPerTurnAround::16-19       2402394     89.17%     99.44% # Reads before turning the bus around for writes
system.mem_ctrls.rdPerTurnAround::20-23          5006      0.19%     99.62% # Reads before turning the bus around for writes
system.mem_ctrls.rdPerTurnAround::24-27          3538      0.13%     99.75% # Reads before turning the bus around for writes
system.mem_ctrls.rdPerTurnAround::28-31          3030      0.11%     99.87% # Reads before turning the bus around for writes
system.mem_ctrls.rdPerTurnAround::32-35          2561      0.10%     99.96% # Reads before turning the bus around for writes
system.mem_ctrls.rdPerTurnAround::36-39           390      0.01%     99.98% # Reads before turning the bus around for writes
system.mem_ctrls.rdPerTurnAround::40-43           183      0.01%     99.98% # Reads before turning the bus around for writes
system.mem_ctrls.rdPerTurnAround::44-47           113      0.00%     99.99% # Reads before turning the bus around for writes
system.mem_ctrls.rdPerTurnAround::48-51            62      0.00%     99.99% # Reads before turning the bus around for writes
system.mem_ctrls.rdPerTurnAround::52-55            39      0.00%     99.99% # Reads before turning the bus around for writes
system.mem_ctrls.rdPerTurnAround::56-59            29      0.00%     99.99% # Reads before turning the bus around for writes
system.mem_ctrls.rdPerTurnAround::60-63            34      0.00%     99.99% # Reads before turning the bus around for writes
system.mem_ctrls.rdPerTurnAround::64-67            19      0.00%     99.99% # Reads before turning the bus around for writes
system.mem_ctrls.rdPerTurnAround::68-71            27      0.00%    100.00% # Reads before turning the bus around for writes
system.mem_ctrls.rdPerTurnAround::72-75            19      0.00%    100.00% # Reads before turning the bus around for writes
system.mem_ctrls.rdPerTurnAround::76-79            23      0.00%    100.00% # Reads before turning the bus around for writes
system.mem_ctrls.rdPerTurnAround::80-83            24      0.00%    100.00% # Reads before turning the bus around for writes
system.mem_ctrls.rdPerTurnAround::84-87            21      0.00%    100.00% # Reads before turning the bus around for writes
system.mem_ctrls.rdPerTurnAround::88-91            17      0.00%    100.00% # Reads before turning the bus around for writes
system.mem_ctrls.rdPerTurnAround::92-95            11      0.00%    100.00% # Reads before turning the bus around for writes
system.mem_ctrls.rdPerTurnAround::96-99             6      0.00%    100.00% # Reads before turning the bus around for writes
system.mem_ctrls.rdPerTurnAround::100-103            6      0.00%    100.00% # Reads before turning the bus around for writes
system.mem_ctrls.rdPerTurnAround::104-107            1      0.00%    100.00% # Reads before turning the bus around for writes
system.mem_ctrls.rdPerTurnAround::108-111            1      0.00%    100.00% # Reads before turning the bus around for writes
system.mem_ctrls.rdPerTurnAround::116-119            1      0.00%    100.00% # Reads before turning the bus around for writes
system.mem_ctrls.rdPerTurnAround::total       2694147                       # Reads before turning the bus around for writes
system.mem_ctrls.wrPerTurnAround::samples      2694147                       # Writes before turning the bus around for reads
system.mem_ctrls.wrPerTurnAround::mean      16.039237                       # Writes before turning the bus around for reads
system.mem_ctrls.wrPerTurnAround::gmean     16.035928                       # Writes before turning the bus around for reads
system.mem_ctrls.wrPerTurnAround::stdev      0.349836                       # Writes before turning the bus around for reads
system.mem_ctrls.wrPerTurnAround::16          2653189     98.48%     98.48% # Writes before turning the bus around for reads
system.mem_ctrls.wrPerTurnAround::17             3148      0.12%     98.60% # Writes before turning the bus around for reads
system.mem_ctrls.wrPerTurnAround::18            23482      0.87%     99.47% # Writes before turning the bus around for reads
system.mem_ctrls.wrPerTurnAround::19             7437      0.28%     99.74% # Writes before turning the bus around for reads
system.mem_ctrls.wrPerTurnAround::20             4027      0.15%     99.89% # Writes before turning the bus around for reads
system.mem_ctrls.wrPerTurnAround::21              609      0.02%     99.92% # Writes before turning the bus around for reads
system.mem_ctrls.wrPerTurnAround::22             1864      0.07%     99.99% # Writes before turning the bus around for reads
system.mem_ctrls.wrPerTurnAround::23              297      0.01%    100.00% # Writes before turning the bus around for reads
system.mem_ctrls.wrPerTurnAround::24               55      0.00%    100.00% # Writes before turning the bus around for reads
system.mem_ctrls.wrPerTurnAround::25               15      0.00%    100.00% # Writes before turning the bus around for reads
system.mem_ctrls.wrPerTurnAround::26                8      0.00%    100.00% # Writes before turning the bus around for reads
system.mem_ctrls.wrPerTurnAround::27                3      0.00%    100.00% # Writes before turning the bus around for reads
system.mem_ctrls.wrPerTurnAround::28                5      0.00%    100.00% # Writes before turning the bus around for reads
system.mem_ctrls.wrPerTurnAround::30                4      0.00%    100.00% # Writes before turning the bus around for reads
system.mem_ctrls.wrPerTurnAround::31                2      0.00%    100.00% # Writes before turning the bus around for reads
system.mem_ctrls.wrPerTurnAround::32                1      0.00%    100.00% # Writes before turning the bus around for reads
system.mem_ctrls.wrPerTurnAround::37                1      0.00%    100.00% # Writes before turning the bus around for reads
system.mem_ctrls.wrPerTurnAround::total       2694147                       # Writes before turning the bus around for reads
system.mem_ctrls.totQLat                 1480442380294                       # Total ticks spent queuing
system.mem_ctrls.totMemAccLat            2278784605294                       # Total ticks spent from burst creation until serviced by the DRAM
system.mem_ctrls.totBusLat               212891260000                       # Total ticks spent in databus transfers
system.mem_ctrls.avgQLat                     34769.92                       # Average queueing delay per DRAM burst
system.mem_ctrls.avgBusLat                    5000.00                       # Average bus latency per DRAM burst
system.mem_ctrls.avgMemAccLat                53519.92                       # Average memory access latency per DRAM burst
system.mem_ctrls.avgRdBW                       876.47                       # Average DRAM read bandwidth in MiByte/s
system.mem_ctrls.avgWrBW                       889.52                       # Average achieved write bandwidth in MiByte/s
system.mem_ctrls.avgRdBWSys                    890.41                       # Average system read bandwidth in MiByte/s
system.mem_ctrls.avgWrBWSys                    890.41                       # Average system write bandwidth in MiByte/s
system.mem_ctrls.peakBW                      12800.00                       # Theoretical peak bandwidth in MiByte/s
system.mem_ctrls.busUtil                        13.80                       # Data bus utilization in percentage
system.mem_ctrls.busUtilRead                     6.85                       # Data bus utilization in percentage for reads
system.mem_ctrls.busUtilWrite                    6.95                       # Data bus utilization in percentage for writes
system.mem_ctrls.avgRdQLen                       2.00                       # Average read queue length when enqueuing
system.mem_ctrls.avgWrQLen                      26.77                       # Average write queue length when enqueuing
system.mem_ctrls.readRowHits                 25430724                       # Number of row buffer hits during reads
system.mem_ctrls.writeRowHits                28308666                       # Number of row buffer hits during writes
system.mem_ctrls.readRowHitRate                 59.73                       # Row buffer hit rate for reads
system.mem_ctrls.writeRowHitRate                65.51                       # Row buffer hit rate for writes
system.mem_ctrls.avgGap                      71877.09                       # Average gap between requests
system.mem_ctrls.pageHitRate                    62.64                       # Row buffer hit rate, read and write combined
system.mem_ctrls_0.actEnergy             125837175240                       # Energy for activate commands per rank (pJ)
system.mem_ctrls_0.preEnergy              68661157125                       # Energy for precharge commands per rank (pJ)
system.mem_ctrls_0.readEnergy            174776121000                       # Energy for read commands per rank (pJ)
system.mem_ctrls_0.writeEnergy           147164597280                       # Energy for write commands per rank (pJ)
system.mem_ctrls_0.refreshEnergy         203378229600                       # Energy for refresh commands per rank (pJ)
system.mem_ctrls_0.actBackEnergy         1581301743165                       # Energy for active background per rank (pJ)
system.mem_ctrls_0.preBackEnergy         481172951250                       # Energy for precharge background per rank (pJ)
system.mem_ctrls_0.totalEnergy           2782291974660                       # Total energy per rank (pJ)
system.mem_ctrls_0.averagePower            893.535987                       # Core power per rank (mW)
system.mem_ctrls_0.memoryStateTime::IDLE 790917228502                       # Time in different power states
system.mem_ctrls_0.memoryStateTime::REF  103818520000                       # Time in different power states
system.mem_ctrls_0.memoryStateTime::PRE_PDN            0                       # Time in different power states
system.mem_ctrls_0.memoryStateTime::ACT  2214329523998                       # Time in different power states
system.mem_ctrls_0.memoryStateTime::ACT_PDN            0                       # Time in different power states
system.mem_ctrls_1.actEnergy             116746547400                       # Energy for activate commands per rank (pJ)
system.mem_ctrls_1.preEnergy              63700993125                       # Energy for precharge commands per rank (pJ)
system.mem_ctrls_1.readEnergy            157805856000                       # Energy for read commands per rank (pJ)
system.mem_ctrls_1.writeEnergy           133247067120                       # Energy for write commands per rank (pJ)
system.mem_ctrls_1.refreshEnergy         203378229600                       # Energy for refresh commands per rank (pJ)
system.mem_ctrls_1.actBackEnergy         1580986713285                       # Energy for active background per rank (pJ)
system.mem_ctrls_1.preBackEnergy         481449248250                       # Energy for precharge background per rank (pJ)
system.mem_ctrls_1.totalEnergy           2737314654780                       # Total energy per rank (pJ)
system.mem_ctrls_1.averagePower            879.091495                       # Core power per rank (mW)
system.mem_ctrls_1.memoryStateTime::IDLE 790988707506                       # Time in different power states
system.mem_ctrls_1.memoryStateTime::REF  103818520000                       # Time in different power states
system.mem_ctrls_1.memoryStateTime::PRE_PDN            0                       # Time in different power states
system.mem_ctrls_1.memoryStateTime::ACT  2214258191244                       # Time in different power states
system.mem_ctrls_1.memoryStateTime::ACT_PDN            0                       # Time in different power states
system.cpu_voltage_domain.voltage                   1                       # Voltage in Volts
system.cpu_clk_domain.clock                       500                       # Clock period in ticks
system.cpu0.apic_clk_domain.clock                8000                       # Clock period in ticks
system.cpu0.numCycles                      6217594958                       # number of cpu cycles simulated
system.cpu0.numWorkItemsStarted                     0                       # number of work items this cpu started
system.cpu0.numWorkItemsCompleted                   0                       # number of work items this cpu completed
system.cpu0.kern.inst.arm                           0                       # number of arm instructions executed
system.cpu0.kern.inst.quiesce                       0                       # number of quiesce instructions executed
system.cpu0.committedInsts                    2520789                       # Number of instructions committed
system.cpu0.committedOps                      5492677                       # Number of ops (including micro ops) committed
system.cpu0.num_int_alu_accesses              5373354                       # Number of integer alu accesses
system.cpu0.num_fp_alu_accesses                    39                       # Number of float alu accesses
system.cpu0.num_func_calls                     161644                       # number of times a function call or return occured
system.cpu0.num_conditional_control_insts       363482                       # number of instructions that are conditional controls
system.cpu0.num_int_insts                     5373354                       # number of integer instructions
system.cpu0.num_fp_insts                           39                       # number of float instructions
system.cpu0.num_int_register_reads           10927042                       # number of times the integer registers were read
system.cpu0.num_int_register_writes           4452384                       # number of times the integer registers were written
system.cpu0.num_fp_register_reads                  63                       # number of times the floating registers were read
system.cpu0.num_fp_register_writes                 31                       # number of times the floating registers were written
system.cpu0.num_cc_register_reads             3036100                       # number of times the CC registers were read
system.cpu0.num_cc_register_writes            1642258                       # number of times the CC registers were written
system.cpu0.num_mem_refs                      1296367                       # number of memory refs
system.cpu0.num_load_insts                     799000                       # Number of load instructions
system.cpu0.num_store_insts                    497367                       # Number of store instructions
system.cpu0.num_idle_cycles              6197768157.164079                       # Number of idle cycles
system.cpu0.num_busy_cycles              19826800.835921                       # Number of busy cycles
system.cpu0.not_idle_fraction                0.003189                       # Percentage of non-idle cycles
system.cpu0.idle_fraction                    0.996811                       # Percentage of idle cycles
system.cpu0.Branches                           574638                       # Number of branches fetched
system.cpu0.op_class::No_OpClass                96350      1.75%      1.75% # Class of executed instruction
system.cpu0.op_class::IntAlu                  4057419     73.87%     75.62% # Class of executed instruction
system.cpu0.op_class::IntMult                   10222      0.19%     75.81% # Class of executed instruction
system.cpu0.op_class::IntDiv                    32311      0.59%     76.40% # Class of executed instruction
system.cpu0.op_class::FloatAdd                     30      0.00%     76.40% # Class of executed instruction
system.cpu0.op_class::FloatCmp                      0      0.00%     76.40% # Class of executed instruction
system.cpu0.op_class::FloatCvt                      0      0.00%     76.40% # Class of executed instruction
system.cpu0.op_class::FloatMult                     0      0.00%     76.40% # Class of executed instruction
system.cpu0.op_class::FloatDiv                      0      0.00%     76.40% # Class of executed instruction
system.cpu0.op_class::FloatSqrt                     0      0.00%     76.40% # Class of executed instruction
system.cpu0.op_class::SimdAdd                       0      0.00%     76.40% # Class of executed instruction
system.cpu0.op_class::SimdAddAcc                    0      0.00%     76.40% # Class of executed instruction
system.cpu0.op_class::SimdAlu                       0      0.00%     76.40% # Class of executed instruction
system.cpu0.op_class::SimdCmp                       0      0.00%     76.40% # Class of executed instruction
system.cpu0.op_class::SimdCvt                       0      0.00%     76.40% # Class of executed instruction
system.cpu0.op_class::SimdMisc                      0      0.00%     76.40% # Class of executed instruction
system.cpu0.op_class::SimdMult                      0      0.00%     76.40% # Class of executed instruction
system.cpu0.op_class::SimdMultAcc                   0      0.00%     76.40% # Class of executed instruction
system.cpu0.op_class::SimdShift                     0      0.00%     76.40% # Class of executed instruction
system.cpu0.op_class::SimdShiftAcc                  0      0.00%     76.40% # Class of executed instruction
system.cpu0.op_class::SimdSqrt                      0      0.00%     76.40% # Class of executed instruction
system.cpu0.op_class::SimdFloatAdd                  0      0.00%     76.40% # Class of executed instruction
system.cpu0.op_class::SimdFloatAlu                  0      0.00%     76.40% # Class of executed instruction
system.cpu0.op_class::SimdFloatCmp                  0      0.00%     76.40% # Class of executed instruction
system.cpu0.op_class::SimdFloatCvt                  0      0.00%     76.40% # Class of executed instruction
system.cpu0.op_class::SimdFloatDiv                  0      0.00%     76.40% # Class of executed instruction
system.cpu0.op_class::SimdFloatMisc                 0      0.00%     76.40% # Class of executed instruction
system.cpu0.op_class::SimdFloatMult                 0      0.00%     76.40% # Class of executed instruction
system.cpu0.op_class::SimdFloatMultAcc              0      0.00%     76.40% # Class of executed instruction
system.cpu0.op_class::SimdFloatSqrt                 0      0.00%     76.40% # Class of executed instruction
system.cpu0.op_class::MemRead                  799000     14.55%     90.94% # Class of executed instruction
system.cpu0.op_class::MemWrite                 497367      9.06%    100.00% # Class of executed instruction
system.cpu0.op_class::IprAccess                     0      0.00%    100.00% # Class of executed instruction
system.cpu0.op_class::InstPrefetch                  0      0.00%    100.00% # Class of executed instruction
system.cpu0.op_class::total                   5492699                       # Class of executed instruction
system.cpu1.apic_clk_domain.clock                8000                       # Clock period in ticks
system.cpu1.numCycles                      6221349829                       # number of cpu cycles simulated
system.cpu1.numWorkItemsStarted                     0                       # number of work items this cpu started
system.cpu1.numWorkItemsCompleted                   0                       # number of work items this cpu completed
system.cpu1.kern.inst.arm                           0                       # number of arm instructions executed
system.cpu1.kern.inst.quiesce                       0                       # number of quiesce instructions executed
system.cpu1.committedInsts                  717576370                       # Number of instructions committed
system.cpu1.committedOps                   1065316062                       # Number of ops (including micro ops) committed
system.cpu1.num_int_alu_accesses            464815105                       # Number of integer alu accesses
system.cpu1.num_fp_alu_accesses             708837958                       # Number of float alu accesses
system.cpu1.num_func_calls                     928846                       # number of times a function call or return occured
system.cpu1.num_conditional_control_insts     10884601                       # number of instructions that are conditional controls
system.cpu1.num_int_insts                   464815105                       # number of integer instructions
system.cpu1.num_fp_insts                    708837958                       # number of float instructions
system.cpu1.num_int_register_reads          973763558                       # number of times the integer registers were read
system.cpu1.num_int_register_writes         344526082                       # number of times the integer registers were written
system.cpu1.num_fp_register_reads          1593836506                       # number of times the floating registers were read
system.cpu1.num_fp_register_writes          654311894                       # number of times the floating registers were written
system.cpu1.num_cc_register_reads           112047384                       # number of times the CC registers were read
system.cpu1.num_cc_register_writes          201885951                       # number of times the CC registers were written
system.cpu1.num_mem_refs                    129594184                       # number of memory refs
system.cpu1.num_load_insts                   75596981                       # Number of load instructions
system.cpu1.num_store_insts                  53997203                       # Number of store instructions
system.cpu1.num_idle_cycles              16816333.465470                       # Number of idle cycles
system.cpu1.num_busy_cycles              6204533495.534531                       # Number of busy cycles
system.cpu1.not_idle_fraction                0.997297                       # Percentage of non-idle cycles
system.cpu1.idle_fraction                    0.002703                       # Percentage of idle cycles
system.cpu1.Branches                         12111517                       # Number of branches fetched
system.cpu1.op_class::No_OpClass               319614      0.03%      0.03% # Class of executed instruction
system.cpu1.op_class::IntAlu                432006409     40.55%     40.58% # Class of executed instruction
system.cpu1.op_class::IntMult                   93429      0.01%     40.59% # Class of executed instruction
system.cpu1.op_class::IntDiv                     2064      0.00%     40.59% # Class of executed instruction
system.cpu1.op_class::FloatAdd              503316886     47.25%     87.84% # Class of executed instruction
system.cpu1.op_class::FloatCmp                      0      0.00%     87.84% # Class of executed instruction
system.cpu1.op_class::FloatCvt                      0      0.00%     87.84% # Class of executed instruction
system.cpu1.op_class::FloatMult                     0      0.00%     87.84% # Class of executed instruction
system.cpu1.op_class::FloatDiv                      0      0.00%     87.84% # Class of executed instruction
system.cpu1.op_class::FloatSqrt                     0      0.00%     87.84% # Class of executed instruction
system.cpu1.op_class::SimdAdd                       0      0.00%     87.84% # Class of executed instruction
system.cpu1.op_class::SimdAddAcc                    0      0.00%     87.84% # Class of executed instruction
system.cpu1.op_class::SimdAlu                       0      0.00%     87.84% # Class of executed instruction
system.cpu1.op_class::SimdCmp                       0      0.00%     87.84% # Class of executed instruction
system.cpu1.op_class::SimdCvt                       0      0.00%     87.84% # Class of executed instruction
system.cpu1.op_class::SimdMisc                      0      0.00%     87.84% # Class of executed instruction
system.cpu1.op_class::SimdMult                      0      0.00%     87.84% # Class of executed instruction
system.cpu1.op_class::SimdMultAcc                   0      0.00%     87.84% # Class of executed instruction
system.cpu1.op_class::SimdShift                     0      0.00%     87.84% # Class of executed instruction
system.cpu1.op_class::SimdShiftAcc                  0      0.00%     87.84% # Class of executed instruction
system.cpu1.op_class::SimdSqrt                      0      0.00%     87.84% # Class of executed instruction
system.cpu1.op_class::SimdFloatAdd                  0      0.00%     87.84% # Class of executed instruction
system.cpu1.op_class::SimdFloatAlu                  0      0.00%     87.84% # Class of executed instruction
system.cpu1.op_class::SimdFloatCmp                  0      0.00%     87.84% # Class of executed instruction
system.cpu1.op_class::SimdFloatCvt                  0      0.00%     87.84% # Class of executed instruction
system.cpu1.op_class::SimdFloatDiv                  0      0.00%     87.84% # Class of executed instruction
system.cpu1.op_class::SimdFloatMisc                 0      0.00%     87.84% # Class of executed instruction
system.cpu1.op_class::SimdFloatMult                 0      0.00%     87.84% # Class of executed instruction
system.cpu1.op_class::SimdFloatMultAcc              0      0.00%     87.84% # Class of executed instruction
system.cpu1.op_class::SimdFloatSqrt                 0      0.00%     87.84% # Class of executed instruction
system.cpu1.op_class::MemRead                75596981      7.10%     94.93% # Class of executed instruction
system.cpu1.op_class::MemWrite               53997203      5.07%    100.00% # Class of executed instruction
system.cpu1.op_class::IprAccess                     0      0.00%    100.00% # Class of executed instruction
system.cpu1.op_class::InstPrefetch                  0      0.00%    100.00% # Class of executed instruction
system.cpu1.op_class::total                1065332586                       # Class of executed instruction
system.cpu2.apic_clk_domain.clock                8000                       # Clock period in ticks
system.cpu2.numCycles                      6214419405                       # number of cpu cycles simulated
system.cpu2.numWorkItemsStarted                     0                       # number of work items this cpu started
system.cpu2.numWorkItemsCompleted                   0                       # number of work items this cpu completed
system.cpu2.kern.inst.arm                           0                       # number of arm instructions executed
system.cpu2.kern.inst.quiesce                       0                       # number of quiesce instructions executed
system.cpu2.committedInsts                    2159269                       # Number of instructions committed
system.cpu2.committedOps                      4676041                       # Number of ops (including micro ops) committed
system.cpu2.num_int_alu_accesses              4571531                       # Number of integer alu accesses
system.cpu2.num_fp_alu_accesses                     0                       # Number of float alu accesses
system.cpu2.num_func_calls                     128666                       # number of times a function call or return occured
system.cpu2.num_conditional_control_insts       329337                       # number of instructions that are conditional controls
system.cpu2.num_int_insts                     4571531                       # number of integer instructions
system.cpu2.num_fp_insts                            0                       # number of float instructions
system.cpu2.num_int_register_reads            9289602                       # number of times the integer registers were read
system.cpu2.num_int_register_writes           3798073                       # number of times the integer registers were written
system.cpu2.num_fp_register_reads                   0                       # number of times the floating registers were read
system.cpu2.num_fp_register_writes                  0                       # number of times the floating registers were written
system.cpu2.num_cc_register_reads             2644958                       # number of times the CC registers were read
system.cpu2.num_cc_register_writes            1380454                       # number of times the CC registers were written
system.cpu2.num_mem_refs                      1110842                       # number of memory refs
system.cpu2.num_load_insts                     690942                       # Number of load instructions
system.cpu2.num_store_insts                    419900                       # Number of store instructions
system.cpu2.num_idle_cycles              6190698282.278941                       # Number of idle cycles
system.cpu2.num_busy_cycles              23721122.721058                       # Number of busy cycles
system.cpu2.not_idle_fraction                0.003817                       # Percentage of non-idle cycles
system.cpu2.idle_fraction                    0.996183                       # Percentage of idle cycles
system.cpu2.Branches                           500147                       # Number of branches fetched
system.cpu2.op_class::No_OpClass                89949      1.92%      1.92% # Class of executed instruction
system.cpu2.op_class::IntAlu                  3433785     73.43%     75.36% # Class of executed instruction
system.cpu2.op_class::IntMult                    9353      0.20%     75.56% # Class of executed instruction
system.cpu2.op_class::IntDiv                    32116      0.69%     76.24% # Class of executed instruction
system.cpu2.op_class::FloatAdd                      0      0.00%     76.24% # Class of executed instruction
system.cpu2.op_class::FloatCmp                      0      0.00%     76.24% # Class of executed instruction
system.cpu2.op_class::FloatCvt                      0      0.00%     76.24% # Class of executed instruction
system.cpu2.op_class::FloatMult                     0      0.00%     76.24% # Class of executed instruction
system.cpu2.op_class::FloatDiv                      0      0.00%     76.24% # Class of executed instruction
system.cpu2.op_class::FloatSqrt                     0      0.00%     76.24% # Class of executed instruction
system.cpu2.op_class::SimdAdd                       0      0.00%     76.24% # Class of executed instruction
system.cpu2.op_class::SimdAddAcc                    0      0.00%     76.24% # Class of executed instruction
system.cpu2.op_class::SimdAlu                       0      0.00%     76.24% # Class of executed instruction
system.cpu2.op_class::SimdCmp                       0      0.00%     76.24% # Class of executed instruction
system.cpu2.op_class::SimdCvt                       0      0.00%     76.24% # Class of executed instruction
system.cpu2.op_class::SimdMisc                      0      0.00%     76.24% # Class of executed instruction
system.cpu2.op_class::SimdMult                      0      0.00%     76.24% # Class of executed instruction
system.cpu2.op_class::SimdMultAcc                   0      0.00%     76.24% # Class of executed instruction
system.cpu2.op_class::SimdShift                     0      0.00%     76.24% # Class of executed instruction
system.cpu2.op_class::SimdShiftAcc                  0      0.00%     76.24% # Class of executed instruction
system.cpu2.op_class::SimdSqrt                      0      0.00%     76.24% # Class of executed instruction
system.cpu2.op_class::SimdFloatAdd                  0      0.00%     76.24% # Class of executed instruction
system.cpu2.op_class::SimdFloatAlu                  0      0.00%     76.24% # Class of executed instruction
system.cpu2.op_class::SimdFloatCmp                  0      0.00%     76.24% # Class of executed instruction
system.cpu2.op_class::SimdFloatCvt                  0      0.00%     76.24% # Class of executed instruction
system.cpu2.op_class::SimdFloatDiv                  0      0.00%     76.24% # Class of executed instruction
system.cpu2.op_class::SimdFloatMisc                 0      0.00%     76.24% # Class of executed instruction
system.cpu2.op_class::SimdFloatMult                 0      0.00%     76.24% # Class of executed instruction
system.cpu2.op_class::SimdFloatMultAcc              0      0.00%     76.24% # Class of executed instruction
system.cpu2.op_class::SimdFloatSqrt                 0      0.00%     76.24% # Class of executed instruction
system.cpu2.op_class::MemRead                  690942     14.78%     91.02% # Class of executed instruction
system.cpu2.op_class::MemWrite                 419900      8.98%    100.00% # Class of executed instruction
system.cpu2.op_class::IprAccess                     0      0.00%    100.00% # Class of executed instruction
system.cpu2.op_class::InstPrefetch                  0      0.00%    100.00% # Class of executed instruction
system.cpu2.op_class::total                   4676045                       # Class of executed instruction
system.cpu3.apic_clk_domain.clock                8000                       # Clock period in ticks
system.cpu3.numCycles                      6215043257                       # number of cpu cycles simulated
system.cpu3.numWorkItemsStarted                     0                       # number of work items this cpu started
system.cpu3.numWorkItemsCompleted                   0                       # number of work items this cpu completed
system.cpu3.kern.inst.arm                           0                       # number of arm instructions executed
system.cpu3.kern.inst.quiesce                       0                       # number of quiesce instructions executed
system.cpu3.committedInsts                    4714545                       # Number of instructions committed
system.cpu3.committedOps                      9589757                       # Number of ops (including micro ops) committed
system.cpu3.num_int_alu_accesses              9407894                       # Number of integer alu accesses
system.cpu3.num_fp_alu_accesses                  1778                       # Number of float alu accesses
system.cpu3.num_func_calls                     252342                       # number of times a function call or return occured
system.cpu3.num_conditional_control_insts       781449                       # number of instructions that are conditional controls
system.cpu3.num_int_insts                     9407894                       # number of integer instructions
system.cpu3.num_fp_insts                         1778                       # number of float instructions
system.cpu3.num_int_register_reads           18803614                       # number of times the integer registers were read
system.cpu3.num_int_register_writes           7690869                       # number of times the integer registers were written
system.cpu3.num_fp_register_reads                2988                       # number of times the floating registers were read
system.cpu3.num_fp_register_writes               1416                       # number of times the floating registers were written
system.cpu3.num_cc_register_reads             5941654                       # number of times the CC registers were read
system.cpu3.num_cc_register_writes            3175085                       # number of times the CC registers were written
system.cpu3.num_mem_refs                      2189449                       # number of memory refs
system.cpu3.num_load_insts                    1408015                       # Number of load instructions
system.cpu3.num_store_insts                    781434                       # Number of store instructions
system.cpu3.num_idle_cycles              6181517577.139564                       # Number of idle cycles
system.cpu3.num_busy_cycles              33525679.860437                       # Number of busy cycles
system.cpu3.not_idle_fraction                0.005394                       # Percentage of non-idle cycles
system.cpu3.idle_fraction                    0.994606                       # Percentage of idle cycles
system.cpu3.Branches                          1087150                       # Number of branches fetched
system.cpu3.op_class::No_OpClass                94222      0.98%      0.98% # Class of executed instruction
system.cpu3.op_class::IntAlu                  7261854     75.72%     76.71% # Class of executed instruction
system.cpu3.op_class::IntMult                   10405      0.11%     76.82% # Class of executed instruction
system.cpu3.op_class::IntDiv                    32573      0.34%     77.16% # Class of executed instruction
system.cpu3.op_class::FloatAdd                   1344      0.01%     77.17% # Class of executed instruction
system.cpu3.op_class::FloatCmp                      0      0.00%     77.17% # Class of executed instruction
system.cpu3.op_class::FloatCvt                      0      0.00%     77.17% # Class of executed instruction
system.cpu3.op_class::FloatMult                     0      0.00%     77.17% # Class of executed instruction
system.cpu3.op_class::FloatDiv                      0      0.00%     77.17% # Class of executed instruction
system.cpu3.op_class::FloatSqrt                     0      0.00%     77.17% # Class of executed instruction
system.cpu3.op_class::SimdAdd                       0      0.00%     77.17% # Class of executed instruction
system.cpu3.op_class::SimdAddAcc                    0      0.00%     77.17% # Class of executed instruction
system.cpu3.op_class::SimdAlu                       0      0.00%     77.17% # Class of executed instruction
system.cpu3.op_class::SimdCmp                       0      0.00%     77.17% # Class of executed instruction
system.cpu3.op_class::SimdCvt                       0      0.00%     77.17% # Class of executed instruction
system.cpu3.op_class::SimdMisc                      0      0.00%     77.17% # Class of executed instruction
system.cpu3.op_class::SimdMult                      0      0.00%     77.17% # Class of executed instruction
system.cpu3.op_class::SimdMultAcc                   0      0.00%     77.17% # Class of executed instruction
system.cpu3.op_class::SimdShift                     0      0.00%     77.17% # Class of executed instruction
system.cpu3.op_class::SimdShiftAcc                  0      0.00%     77.17% # Class of executed instruction
system.cpu3.op_class::SimdSqrt                      0      0.00%     77.17% # Class of executed instruction
system.cpu3.op_class::SimdFloatAdd                  0      0.00%     77.17% # Class of executed instruction
system.cpu3.op_class::SimdFloatAlu                  0      0.00%     77.17% # Class of executed instruction
system.cpu3.op_class::SimdFloatCmp                  0      0.00%     77.17% # Class of executed instruction
system.cpu3.op_class::SimdFloatCvt                  0      0.00%     77.17% # Class of executed instruction
system.cpu3.op_class::SimdFloatDiv                  0      0.00%     77.17% # Class of executed instruction
system.cpu3.op_class::SimdFloatMisc                 0      0.00%     77.17% # Class of executed instruction
system.cpu3.op_class::SimdFloatMult                 0      0.00%     77.17% # Class of executed instruction
system.cpu3.op_class::SimdFloatMultAcc              0      0.00%     77.17% # Class of executed instruction
system.cpu3.op_class::SimdFloatSqrt                 0      0.00%     77.17% # Class of executed instruction
system.cpu3.op_class::MemRead                 1408015     14.68%     91.85% # Class of executed instruction
system.cpu3.op_class::MemWrite                 781434      8.15%    100.00% # Class of executed instruction
system.cpu3.op_class::IprAccess                     0      0.00%    100.00% # Class of executed instruction
system.cpu3.op_class::InstPrefetch                  0      0.00%    100.00% # Class of executed instruction
system.cpu3.op_class::total                   9589847                       # Class of executed instruction
system.iobus.trans_dist::ReadReq                   84                       # Transaction distribution
system.iobus.trans_dist::ReadResp                  84                       # Transaction distribution
system.iobus.trans_dist::WriteReq                3172                       # Transaction distribution
system.iobus.trans_dist::WriteResp               3172                       # Transaction distribution
system.iobus.trans_dist::MessageReq                13                       # Transaction distribution
system.iobus.trans_dist::MessageResp               13                       # Transaction distribution
system.iobus.pkt_count_system.pc.south_bridge.io_apic.int_master::system.ruby.l1_cntrl0.sequencer.pio-slave-port            2                       # Packet count per connected master and slave (bytes)
system.iobus.pkt_count_system.pc.south_bridge.io_apic.int_master::system.ruby.l1_cntrl1.sequencer.pio-slave-port            4                       # Packet count per connected master and slave (bytes)
system.iobus.pkt_count_system.pc.south_bridge.io_apic.int_master::system.ruby.l1_cntrl2.sequencer.pio-slave-port            4                       # Packet count per connected master and slave (bytes)
system.iobus.pkt_count_system.pc.south_bridge.io_apic.int_master::system.ruby.l1_cntrl3.sequencer.pio-slave-port            2                       # Packet count per connected master and slave (bytes)
system.iobus.pkt_count_system.pc.south_bridge.io_apic.int_master::total           12                       # Packet count per connected master and slave (bytes)
system.iobus.pkt_count_system.ruby.l1_cntrl0.sequencer.mem-master-port::system.pc.south_bridge.io_apic.pio            6                       # Packet count per connected master and slave (bytes)
system.iobus.pkt_count_system.ruby.l1_cntrl0.sequencer.mem-master-port::system.pc.com_1.pio           22                       # Packet count per connected master and slave (bytes)
system.iobus.pkt_count_system.ruby.l1_cntrl0.sequencer.mem-master-port::system.ruby.l1_cntrl0.sequencer.pio-slave-port         1566                       # Packet count per connected master and slave (bytes)
system.iobus.pkt_count_system.ruby.l1_cntrl0.sequencer.mem-master-port::system.ruby.l1_cntrl1.sequencer.pio-slave-port            2                       # Packet count per connected master and slave (bytes)
system.iobus.pkt_count_system.ruby.l1_cntrl0.sequencer.mem-master-port::total         1596                       # Packet count per connected master and slave (bytes)
system.iobus.pkt_count_system.ruby.l1_cntrl1.sequencer.mem-master-port::system.pc.south_bridge.io_apic.pio           14                       # Packet count per connected master and slave (bytes)
system.iobus.pkt_count_system.ruby.l1_cntrl1.sequencer.mem-master-port::system.pc.com_1.pio          162                       # Packet count per connected master and slave (bytes)
system.iobus.pkt_count_system.ruby.l1_cntrl1.sequencer.mem-master-port::system.ruby.l1_cntrl0.sequencer.pio-slave-port            2                       # Packet count per connected master and slave (bytes)
system.iobus.pkt_count_system.ruby.l1_cntrl1.sequencer.mem-master-port::system.ruby.l1_cntrl1.sequencer.pio-slave-port         1574                       # Packet count per connected master and slave (bytes)
system.iobus.pkt_count_system.ruby.l1_cntrl1.sequencer.mem-master-port::system.ruby.l1_cntrl2.sequencer.pio-slave-port            2                       # Packet count per connected master and slave (bytes)
system.iobus.pkt_count_system.ruby.l1_cntrl1.sequencer.mem-master-port::total         1754                       # Packet count per connected master and slave (bytes)
system.iobus.pkt_count_system.ruby.l1_cntrl2.sequencer.mem-master-port::system.pc.south_bridge.io_apic.pio           16                       # Packet count per connected master and slave (bytes)
system.iobus.pkt_count_system.ruby.l1_cntrl2.sequencer.mem-master-port::system.ruby.l1_cntrl2.sequencer.pio-slave-port         1568                       # Packet count per connected master and slave (bytes)
system.iobus.pkt_count_system.ruby.l1_cntrl2.sequencer.mem-master-port::system.ruby.l1_cntrl3.sequencer.pio-slave-port            2                       # Packet count per connected master and slave (bytes)
system.iobus.pkt_count_system.ruby.l1_cntrl2.sequencer.mem-master-port::total         1586                       # Packet count per connected master and slave (bytes)
system.iobus.pkt_count_system.ruby.l1_cntrl3.sequencer.mem-master-port::system.pc.south_bridge.io_apic.pio            8                       # Packet count per connected master and slave (bytes)
system.iobus.pkt_count_system.ruby.l1_cntrl3.sequencer.mem-master-port::system.ruby.l1_cntrl0.sequencer.pio-slave-port            2                       # Packet count per connected master and slave (bytes)
system.iobus.pkt_count_system.ruby.l1_cntrl3.sequencer.mem-master-port::system.ruby.l1_cntrl1.sequencer.pio-slave-port            2                       # Packet count per connected master and slave (bytes)
system.iobus.pkt_count_system.ruby.l1_cntrl3.sequencer.mem-master-port::system.ruby.l1_cntrl2.sequencer.pio-slave-port            2                       # Packet count per connected master and slave (bytes)
system.iobus.pkt_count_system.ruby.l1_cntrl3.sequencer.mem-master-port::system.ruby.l1_cntrl3.sequencer.pio-slave-port         1576                       # Packet count per connected master and slave (bytes)
system.iobus.pkt_count_system.ruby.l1_cntrl3.sequencer.mem-master-port::total         1590                       # Packet count per connected master and slave (bytes)
system.iobus.pkt_count::total                    6538                       # Packet count per connected master and slave (bytes)
system.iobus.pkt_size_system.pc.south_bridge.io_apic.int_master::system.ruby.l1_cntrl0.sequencer.pio-slave-port            4                       # Cumulative packet size per connected master and slave (bytes)
system.iobus.pkt_size_system.pc.south_bridge.io_apic.int_master::system.ruby.l1_cntrl1.sequencer.pio-slave-port            8                       # Cumulative packet size per connected master and slave (bytes)
system.iobus.pkt_size_system.pc.south_bridge.io_apic.int_master::system.ruby.l1_cntrl2.sequencer.pio-slave-port            8                       # Cumulative packet size per connected master and slave (bytes)
system.iobus.pkt_size_system.pc.south_bridge.io_apic.int_master::system.ruby.l1_cntrl3.sequencer.pio-slave-port            4                       # Cumulative packet size per connected master and slave (bytes)
system.iobus.pkt_size_system.pc.south_bridge.io_apic.int_master::total           24                       # Cumulative packet size per connected master and slave (bytes)
system.iobus.pkt_size_system.ruby.l1_cntrl0.sequencer.mem-master-port::system.pc.south_bridge.io_apic.pio           12                       # Cumulative packet size per connected master and slave (bytes)
system.iobus.pkt_size_system.ruby.l1_cntrl0.sequencer.mem-master-port::system.pc.com_1.pio           11                       # Cumulative packet size per connected master and slave (bytes)
system.iobus.pkt_size_system.ruby.l1_cntrl0.sequencer.mem-master-port::system.ruby.l1_cntrl0.sequencer.pio-slave-port         3132                       # Cumulative packet size per connected master and slave (bytes)
system.iobus.pkt_size_system.ruby.l1_cntrl0.sequencer.mem-master-port::system.ruby.l1_cntrl1.sequencer.pio-slave-port            4                       # Cumulative packet size per connected master and slave (bytes)
system.iobus.pkt_size_system.ruby.l1_cntrl0.sequencer.mem-master-port::total         3159                       # Cumulative packet size per connected master and slave (bytes)
system.iobus.pkt_size_system.ruby.l1_cntrl1.sequencer.mem-master-port::system.pc.south_bridge.io_apic.pio           28                       # Cumulative packet size per connected master and slave (bytes)
system.iobus.pkt_size_system.ruby.l1_cntrl1.sequencer.mem-master-port::system.pc.com_1.pio           81                       # Cumulative packet size per connected master and slave (bytes)
system.iobus.pkt_size_system.ruby.l1_cntrl1.sequencer.mem-master-port::system.ruby.l1_cntrl0.sequencer.pio-slave-port            4                       # Cumulative packet size per connected master and slave (bytes)
system.iobus.pkt_size_system.ruby.l1_cntrl1.sequencer.mem-master-port::system.ruby.l1_cntrl1.sequencer.pio-slave-port         3148                       # Cumulative packet size per connected master and slave (bytes)
system.iobus.pkt_size_system.ruby.l1_cntrl1.sequencer.mem-master-port::system.ruby.l1_cntrl2.sequencer.pio-slave-port            4                       # Cumulative packet size per connected master and slave (bytes)
system.iobus.pkt_size_system.ruby.l1_cntrl1.sequencer.mem-master-port::total         3265                       # Cumulative packet size per connected master and slave (bytes)
system.iobus.pkt_size_system.ruby.l1_cntrl2.sequencer.mem-master-port::system.pc.south_bridge.io_apic.pio           32                       # Cumulative packet size per connected master and slave (bytes)
system.iobus.pkt_size_system.ruby.l1_cntrl2.sequencer.mem-master-port::system.ruby.l1_cntrl2.sequencer.pio-slave-port         3136                       # Cumulative packet size per connected master and slave (bytes)
system.iobus.pkt_size_system.ruby.l1_cntrl2.sequencer.mem-master-port::system.ruby.l1_cntrl3.sequencer.pio-slave-port            4                       # Cumulative packet size per connected master and slave (bytes)
system.iobus.pkt_size_system.ruby.l1_cntrl2.sequencer.mem-master-port::total         3172                       # Cumulative packet size per connected master and slave (bytes)
system.iobus.pkt_size_system.ruby.l1_cntrl3.sequencer.mem-master-port::system.pc.south_bridge.io_apic.pio           16                       # Cumulative packet size per connected master and slave (bytes)
system.iobus.pkt_size_system.ruby.l1_cntrl3.sequencer.mem-master-port::system.ruby.l1_cntrl0.sequencer.pio-slave-port            4                       # Cumulative packet size per connected master and slave (bytes)
system.iobus.pkt_size_system.ruby.l1_cntrl3.sequencer.mem-master-port::system.ruby.l1_cntrl1.sequencer.pio-slave-port            4                       # Cumulative packet size per connected master and slave (bytes)
system.iobus.pkt_size_system.ruby.l1_cntrl3.sequencer.mem-master-port::system.ruby.l1_cntrl2.sequencer.pio-slave-port            4                       # Cumulative packet size per connected master and slave (bytes)
system.iobus.pkt_size_system.ruby.l1_cntrl3.sequencer.mem-master-port::system.ruby.l1_cntrl3.sequencer.pio-slave-port         3152                       # Cumulative packet size per connected master and slave (bytes)
system.iobus.pkt_size_system.ruby.l1_cntrl3.sequencer.mem-master-port::total         3180                       # Cumulative packet size per connected master and slave (bytes)
system.iobus.pkt_size::total                    12800                       # Cumulative packet size per connected master and slave (bytes)
system.iobus.reqLayer8.occupancy                37996                       # Layer occupancy (ticks)
system.iobus.reqLayer8.utilization                0.0                       # Layer utilization (%)
system.iobus.reqLayer12.occupancy              119000                       # Layer occupancy (ticks)
system.iobus.reqLayer12.utilization               0.0                       # Layer utilization (%)
system.iobus.reqLayer17.occupancy             1701499                       # Layer occupancy (ticks)
system.iobus.reqLayer17.utilization               0.0                       # Layer utilization (%)
system.iobus.reqLayer18.occupancy             2069929                       # Layer occupancy (ticks)
system.iobus.reqLayer18.utilization               0.0                       # Layer utilization (%)
system.iobus.reqLayer19.occupancy             1793500                       # Layer occupancy (ticks)
system.iobus.reqLayer19.utilization               0.0                       # Layer utilization (%)
system.iobus.reqLayer20.occupancy             1851997                       # Layer occupancy (ticks)
system.iobus.reqLayer20.utilization               0.0                       # Layer utilization (%)
system.iobus.respLayer0.occupancy                8000                       # Layer occupancy (ticks)
system.iobus.respLayer0.utilization               0.0                       # Layer utilization (%)
system.iobus.respLayer2.occupancy             1199500                       # Layer occupancy (ticks)
system.iobus.respLayer2.utilization               0.0                       # Layer utilization (%)
system.iobus.respLayer4.occupancy             1334500                       # Layer occupancy (ticks)
system.iobus.respLayer4.utilization               0.0                       # Layer utilization (%)
system.iobus.respLayer6.occupancy             1190000                       # Layer occupancy (ticks)
system.iobus.respLayer6.utilization               0.0                       # Layer utilization (%)
system.iobus.respLayer8.occupancy             1194000                       # Layer occupancy (ticks)
system.iobus.respLayer8.utilization               0.0                       # Layer utilization (%)
system.pc.south_bridge.ide.disks.dma_read_full_pages            0                       # Number of full page size DMA reads (not PRD).
system.pc.south_bridge.ide.disks.dma_read_bytes            0                       # Number of bytes transfered via DMA reads (not PRD).
system.pc.south_bridge.ide.disks.dma_read_txs            0                       # Number of DMA read transactions (not PRD).
system.pc.south_bridge.ide.disks.dma_write_full_pages            0                       # Number of full page size DMA writes.
system.pc.south_bridge.ide.disks.dma_write_bytes            0                       # Number of bytes transfered via DMA writes.
system.pc.south_bridge.ide.disks.dma_write_txs            0                       # Number of DMA write transactions.
system.ruby.clk_domain.clock                      500                       # Clock period in ticks
system.ruby.delayHist::bucket_size                  4                       # delay histogram for all message
system.ruby.delayHist::max_bucket                  39                       # delay histogram for all message
system.ruby.delayHist::samples               43985822                       # delay histogram for all message
system.ruby.delayHist::mean                  0.008131                       # delay histogram for all message
system.ruby.delayHist::stdev                 0.348892                       # delay histogram for all message
system.ruby.delayHist                    |    43959227     99.94%     99.94% |        3629      0.01%     99.95% |        3667      0.01%     99.96% |        6809      0.02%     99.97% |       11519      0.03%    100.00% |         229      0.00%    100.00% |         202      0.00%    100.00% |         206      0.00%    100.00% |         334      0.00%    100.00% |           0      0.00%    100.00% # delay histogram for all message
system.ruby.delayHist::total                 43985822                       # delay histogram for all message
system.ruby.outstanding_req_hist_seqr::bucket_size            1                      
[...]
system.ruby.LD.Directory.miss_type_mach_latency_hist_seqr::gmean   158.799150                      
system.ruby.LD.Directory.miss_type_mach_latency_hist_seqr::stdev    85.248732                      
system.ruby.LD.Directory.miss_type_mach_latency_hist_seqr |    20903289     86.46%     86.46% |     2960257     12.24%     98.70% |      273110      1.13%     99.83% |       38985      0.16%    100.00% |        1015      0.00%    100.00% |           2      0.00%    100.00% |           0      0.00%    100.00% |           0      0.00%    100.00% |           0      0.00%    100.00% |           0      0.00%    100.00%
system.ruby.LD.Directory.miss_type_mach_latency_hist_seqr::total     24176658                      
system.ruby.ST.L1Cache.miss_type_mach_latency_hist_seqr::bucket_size            8                      
system.ruby.ST.L1Cache.miss_type_mach_latency_hist_seqr::max_bucket           79                      
system.ruby.ST.L1Cache.miss_type_mach_latency_hist_seqr::samples          670                      
system.ruby.ST.L1Cache.miss_type_mach_latency_hist_seqr::mean    51.419403                      
system.ruby.ST.L1Cache.miss_type_mach_latency_hist_seqr::gmean    51.295208                      
system.ruby.ST.L1Cache.miss_type_mach_latency_hist_seqr::stdev     3.497415                      
system.ruby.ST.L1Cache.miss_type_mach_latency_hist_seqr |           0      0.00%      0.00% |           0      0.00%      0.00% |           0      0.00%      0.00% |           0      0.00%      0.00% |           0      0.00%      0.00% |         141     21.04%     21.04% |         517     77.16%     98.21% |          12      1.79%    100.00% |           0      0.00%    100.00% |           0      0.00%    100.00%
system.ruby.ST.L1Cache.miss_type_mach_latency_hist_seqr::total          670                      
system.ruby.ST.Directory.miss_type_mach_latency_hist_seqr::bucket_size          128                      
system.ruby.ST.Directory.miss_type_mach_latency_hist_seqr::max_bucket         1279                      
system.ruby.ST.Directory.miss_type_mach_latency_hist_seqr::samples     18187671                      
system.ruby.ST.Directory.miss_type_mach_latency_hist_seqr::mean   183.600476                      
system.ruby.ST.Directory.miss_type_mach_latency_hist_seqr::gmean   172.955475                      
system.ruby.ST.Directory.miss_type_mach_latency_hist_seqr::stdev    78.895654                      
system.ruby.ST.Directory.miss_type_mach_latency_hist_seqr |     1162556      6.39%      6.39% |    14574685     80.13%     86.53% |     2070023     11.38%     97.91% |      160302      0.88%     98.79% |      130532      0.72%     99.51% |       57341      0.32%     99.82% |       18791      0.10%     99.93% |       12897      0.07%    100.00% |         538      0.00%    100.00% |           6      0.00%    100.00%
system.ruby.ST.Directory.miss_type_mach_latency_hist_seqr::total     18187671                      
system.ruby.IFETCH.L1Cache.miss_type_mach_latency_hist_seqr::bucket_size           32                      
system.ruby.IFETCH.L1Cache.miss_type_mach_latency_hist_seqr::max_bucket          319                      
system.ruby.IFETCH.L1Cache.miss_type_mach_latency_hist_seqr::samples       639202                      
system.ruby.IFETCH.L1Cache.miss_type_mach_latency_hist_seqr::mean    47.485253                      
system.ruby.IFETCH.L1Cache.miss_type_mach_latency_hist_seqr::gmean    47.343516                      
system.ruby.IFETCH.L1Cache.miss_type_mach_latency_hist_seqr::stdev     3.776034                      
system.ruby.IFETCH.L1Cache.miss_type_mach_latency_hist_seqr |           0      0.00%      0.00% |      639163     99.99%     99.99% |          27      0.00%    100.00% |           7      0.00%    100.00% |           3      0.00%    100.00% |           1      0.00%    100.00% |           0      0.00%    100.00% |           0      0.00%    100.00% |           0      0.00%    100.00% |           1      0.00%    100.00%
system.ruby.IFETCH.L1Cache.miss_type_mach_latency_hist_seqr::total       639202                      
system.ruby.IFETCH.Directory.miss_type_mach_latency_hist_seqr::bucket_size          128                      
system.ruby.IFETCH.Directory.miss_type_mach_latency_hist_seqr::max_bucket         1279                      
system.ruby.IFETCH.Directory.miss_type_mach_latency_hist_seqr::samples       768286                      
system.ruby.IFETCH.Directory.miss_type_mach_latency_hist_seqr::mean   156.877405                      
system.ruby.IFETCH.Directory.miss_type_mach_latency_hist_seqr::gmean   138.449540                      
system.ruby.IFETCH.Directory.miss_type_mach_latency_hist_seqr::stdev    90.821982                      
system.ruby.IFETCH.Directory.miss_type_mach_latency_hist_seqr |      335914     43.72%     43.72% |      344247     44.81%     88.53% |       68158      8.87%     97.40% |       10677      1.39%     98.79% |        5652      0.74%     99.53% |        2457      0.32%     99.85% |         596      0.08%     99.92% |         554      0.07%    100.00% |          31      0.00%    100.00% |           0      0.00%    100.00%
system.ruby.IFETCH.Directory.miss_type_mach_latency_hist_seqr::total       768286                      
system.ruby.RMW_Read.L1Cache.miss_type_mach_latency_hist_seqr::bucket_size            8                      
system.ruby.RMW_Read.L1Cache.miss_type_mach_latency_hist_seqr::max_bucket           79                      
system.ruby.RMW_Read.L1Cache.miss_type_mach_latency_hist_seqr::samples         1986                      
system.ruby.RMW_Read.L1Cache.miss_type_mach_latency_hist_seqr::mean    45.657603                      
system.ruby.RMW_Read.L1Cache.miss_type_mach_latency_hist_seqr::gmean    45.606404                      
system.ruby.RMW_Read.L1Cache.miss_type_mach_latency_hist_seqr::stdev     2.303121                      
system.ruby.RMW_Read.L1Cache.miss_type_mach_latency_hist_seqr |           0      0.00%      0.00% |           0      0.00%      0.00% |           0      0.00%      0.00% |           0      0.00%      0.00% |           0      0.00%      0.00% |        1821     91.69%     91.69% |         139      7.00%     98.69% |          24      1.21%     99.90% |           2      0.10%    100.00% |           0      0.00%    100.00%
system.ruby.RMW_Read.L1Cache.miss_type_mach_latency_hist_seqr::total         1986                      
system.ruby.RMW_Read.Directory.miss_type_mach_latency_hist_seqr::bucket_size          128                      
system.ruby.RMW_Read.Directory.miss_type_mach_latency_hist_seqr::max_bucket         1279                      
system.ruby.RMW_Read.Directory.miss_type_mach_latency_hist_seqr::samples       295218                      
system.ruby.RMW_Read.Directory.miss_type_mach_latency_hist_seqr::mean   143.488219                      
system.ruby.RMW_Read.Directory.miss_type_mach_latency_hist_seqr::gmean   116.304301                      
system.ruby.RMW_Read.Directory.miss_type_mach_latency_hist_seqr::stdev   101.588980                      
system.ruby.RMW_Read.Directory.miss_type_mach_latency_hist_seqr |      138566     46.94%     46.94% |      126876     42.98%     89.91% |       19577      6.63%     96.55% |        7005      2.37%     98.92% |        1994      0.68%     99.59% |         748      0.25%     99.85% |         158      0.05%     99.90% |         211      0.07%     99.97% |          79      0.03%    100.00% |           4      0.00%    100.00%
system.ruby.RMW_Read.Directory.miss_type_mach_latency_hist_seqr::total       295218                      
system.ruby.Locked_RMW_Read.L1Cache.miss_type_mach_latency_hist_seqr::bucket_size            8                      
system.ruby.Locked_RMW_Read.L1Cache.miss_type_mach_latency_hist_seqr::max_bucket           79                      
system.ruby.Locked_RMW_Read.L1Cache.miss_type_mach_latency_hist_seqr::samples         5552                      
system.ruby.Locked_RMW_Read.L1Cache.miss_type_mach_latency_hist_seqr::mean    45.676153                      
system.ruby.Locked_RMW_Read.L1Cache.miss_type_mach_latency_hist_seqr::gmean    45.631988                      
system.ruby.Locked_RMW_Read.L1Cache.miss_type_mach_latency_hist_seqr::stdev     2.109407                      
system.ruby.Locked_RMW_Read.L1Cache.miss_type_mach_latency_hist_seqr |           0      0.00%      0.00% |           0      0.00%      0.00% |           0      0.00%      0.00% |           0      0.00%      0.00% |           0      0.00%      0.00% |        5045     90.87%     90.87% |         492      8.86%     99.73% |          15      0.27%    100.00% |           0      0.00%    100.00% |           0      0.00%    100.00%
system.ruby.Locked_RMW_Read.L1Cache.miss_type_mach_latency_hist_seqr::total         5552                      
system.ruby.Locked_RMW_Read.Directory.miss_type_mach_latency_hist_seqr::bucket_size          128                      
system.ruby.Locked_RMW_Read.Directory.miss_type_mach_latency_hist_seqr::max_bucket         1279                      
system.ruby.Locked_RMW_Read.Directory.miss_type_mach_latency_hist_seqr::samples        36280                      
system.ruby.Locked_RMW_Read.Directory.miss_type_mach_latency_hist_seqr::mean   165.559482                      
system.ruby.Locked_RMW_Read.Directory.miss_type_mach_latency_hist_seqr::gmean   145.603763                      
system.ruby.Locked_RMW_Read.Directory.miss_type_mach_latency_hist_seqr::stdev    92.364428                      
system.ruby.Locked_RMW_Read.Directory.miss_type_mach_latency_hist_seqr |       10384     28.62%     28.62% |       21080     58.10%     86.73% |        3782     10.42%     97.15% |         580      1.60%     98.75% |         314      0.87%     99.61% |          93      0.26%     99.87% |          29      0.08%     99.95% |          15      0.04%     99.99% |           3      0.01%    100.00% |           0      0.00%    100.00%
system.ruby.Locked_RMW_Read.Directory.miss_type_mach_latency_hist_seqr::total        36280                      
system.ruby.Directory_Controller.GETX        22275496      0.00%      0.00%
system.ruby.Directory_Controller.PUTX        21836283      0.00%      0.00%
system.ruby.Directory_Controller.PUTX_NotOwner           14      0.00%      0.00%
system.ruby.Directory_Controller.DMA_READ            2      0.00%      0.00%
system.ruby.Directory_Controller.DMA_WRITE           64      0.00%      0.00%
system.ruby.Directory_Controller.Memory_Data     21836407      0.00%      0.00%
system.ruby.Directory_Controller.Memory_Ack     21836347      0.00%      0.00%
system.ruby.Directory_Controller.I.GETX      21836407      0.00%      0.00%
system.ruby.Directory_Controller.I.DMA_WRITE           64      0.00%      0.00%
system.ruby.Directory_Controller.M.GETX        438752      0.00%      0.00%
system.ruby.Directory_Controller.M.PUTX      21836281      0.00%      0.00%
system.ruby.Directory_Controller.M.PUTX_NotOwner           14      0.00%      0.00%
system.ruby.Directory_Controller.M.DMA_READ            2      0.00%      0.00%
system.ruby.Directory_Controller.M_DRD.PUTX            2      0.00%      0.00%
system.ruby.Directory_Controller.M_DRDI.Memory_Ack            2      0.00%      0.00%
system.ruby.Directory_Controller.IM.GETX          323      0.00%      0.00%
system.ruby.Directory_Controller.IM.Memory_Data     21836407      0.00%      0.00%
system.ruby.Directory_Controller.MI.GETX           14      0.00%      0.00%
system.ruby.Directory_Controller.MI.Memory_Ack     21836281      0.00%      0.00%
system.ruby.Directory_Controller.ID_W.Memory_Ack           64      0.00%      0.00%
system.ruby.DMA_Controller.ReadRequest   |           2    100.00%    100.00% |           0      0.00%    100.00%
system.ruby.DMA_Controller.ReadRequest::total            2                      
system.ruby.DMA_Controller.WriteRequest  |          64    100.00%    100.00% |           0      0.00%    100.00%
system.ruby.DMA_Controller.WriteRequest::total           64                      
system.ruby.DMA_Controller.Data          |           2    100.00%    100.00% |           0      0.00%    100.00%
system.ruby.DMA_Controller.Data::total              2                      
system.ruby.DMA_Controller.Ack           |          64    100.00%    100.00% |           0      0.00%    100.00%
system.ruby.DMA_Controller.Ack::total              64                      
system.ruby.DMA_Controller.READY.ReadRequest |           2    100.00%    100.00% |           0      0.00%    100.00%
system.ruby.DMA_Controller.READY.ReadRequest::total            2                      
system.ruby.DMA_Controller.READY.WriteRequest |          64    100.00%    100.00% |           0      0.00%    100.00%
system.ruby.DMA_Controller.READY.WriteRequest::total           64                      
system.ruby.DMA_Controller.BUSY_RD.Data  |           2    100.00%    100.00% |           0      0.00%    100.00%
system.ruby.DMA_Controller.BUSY_RD.Data::total            2                      
system.ruby.DMA_Controller.BUSY_WR.Ack   |          64    100.00%    100.00% |           0      0.00%    100.00%
system.ruby.DMA_Controller.BUSY_WR.Ack::total           64                      
system.ruby.L1Cache_Controller.Load      |      967758      1.04%      1.04% |    87507488     94.05%     95.09% |     1157257      1.24%     96.34% |     3408780      3.66%    100.00%
system.ruby.L1Cache_Controller.Load::total     93041283                      
system.ruby.L1Cache_Controller.Ifetch    |     4470617      0.41%      0.41% |  1052318073     97.22%     97.63% |     5538079      0.51%     98.14% |    20106678      1.86%    100.00%
system.ruby.L1Cache_Controller.Ifetch::total   1082433447                      
system.ruby.L1Cache_Controller.Store     |      726658      0.86%      0.86% |    80184947     94.98%     95.84% |      895955      1.06%     96.90% |     2612837      3.10%    100.00%
system.ruby.L1Cache_Controller.Store::total     84420397                      
system.ruby.L1Cache_Controller.Data      |      181247      0.81%      0.81% |    21583908     96.90%     97.71% |      200378      0.90%     98.61% |      309626      1.39%    100.00%
system.ruby.L1Cache_Controller.Data::total     22275159                      
system.ruby.L1Cache_Controller.Fwd_GETX  |      135918     30.98%     30.98% |       26177      5.97%     36.94% |      139050     31.69%     68.64% |      137607     31.36%    100.00%
system.ruby.L1Cache_Controller.Fwd_GETX::total       438752                      
system.ruby.L1Cache_Controller.Inv       |           0      0.00%      0.00% |           4    100.00%    100.00% |           0      0.00%    100.00% |           0      0.00%    100.00%
system.ruby.L1Cache_Controller.Inv::total            4                      
system.ruby.L1Cache_Controller.Replacement |       63865      0.29%      0.29% |    21572356     98.47%     98.77% |       81513      0.37%     99.14% |      188912      0.86%    100.00%
system.ruby.L1Cache_Controller.Replacement::total     21906646                      
system.ruby.L1Cache_Controller.Writeback_Ack |       45370      0.21%      0.21% |    21557660     98.72%     98.93% |       61233      0.28%     99.21% |      172020      0.79%    100.00%
system.ruby.L1Cache_Controller.Writeback_Ack::total     21836283                      
system.ruby.L1Cache_Controller.Writeback_Nack |           3     21.43%     21.43% |           1      7.14%     28.57% |           1      7.14%     35.71% |           9     64.29%    100.00%
system.ruby.L1Cache_Controller.Writeback_Nack::total           14                      
system.ruby.L1Cache_Controller.I.Load    |       44287      0.36%      0.36% |    12000666     98.17%     98.54% |       54212      0.44%     98.98% |      124677      1.02%    100.00%
system.ruby.L1Cache_Controller.I.Load::total     12223842                      
system.ruby.L1Cache_Controller.I.Ifetch  |      125818     16.56%     16.56% |      360365     47.42%     63.98% |      135118     17.78%     81.76% |      138594     18.24%    100.00%
system.ruby.L1Cache_Controller.I.Ifetch::total       759895                      
system.ruby.L1Cache_Controller.I.Store   |       11142      0.12%      0.12% |     9222877     99.26%     99.38% |       11048      0.12%     99.50% |       46355      0.50%    100.00%
system.ruby.L1Cache_Controller.I.Store::total      9291422                      
system.ruby.L1Cache_Controller.I.Replacement |       18492     26.29%     26.29% |       14697     20.89%     47.18% |       20279     28.83%     76.00% |       16883     24.00%    100.00%
system.ruby.L1Cache_Controller.I.Replacement::total        70351                      
system.ruby.L1Cache_Controller.II.Writeback_Nack |           3     21.43%     21.43% |           1      7.14%     28.57% |           1      7.14%     35.71% |           9     64.29%    100.00%
system.ruby.L1Cache_Controller.II.Writeback_Nack::total           14                      
system.ruby.L1Cache_Controller.M.Load    |      923471      1.14%      1.14% |    75506822     93.43%     94.57% |     1103045      1.36%     95.94% |     3284103      4.06%    100.00%
system.ruby.L1Cache_Controller.M.Load::total     80817441                      
system.ruby.L1Cache_Controller.M.Ifetch  |     4344799      0.40%      0.40% |  1051957708     97.25%     97.65% |     5402961      0.50%     98.15% |    19968084      1.85%    100.00%
system.ruby.L1Cache_Controller.M.Ifetch::total   1081673552                      
system.ruby.L1Cache_Controller.M.Store   |      715516      0.95%      0.95% |    70962070     94.45%     95.41% |      884907      1.18%     96.58% |     2566482      3.42%    100.00%
system.ruby.L1Cache_Controller.M.Store::total     75128975                      
system.ruby.L1Cache_Controller.M.Fwd_GETX |      135915     30.98%     30.98% |       26176      5.97%     36.94% |      139049     31.69%     68.64% |      137598     31.36%    100.00%
system.ruby.L1Cache_Controller.M.Fwd_GETX::total       438738                      
system.ruby.L1Cache_Controller.M.Inv     |           0      0.00%      0.00% |           2    100.00%    100.00% |           0      0.00%    100.00% |           0      0.00%    100.00%
system.ruby.L1Cache_Controller.M.Inv::total            2                      
system.ruby.L1Cache_Controller.M.Replacement |       45373      0.21%      0.21% |    21557659     98.72%     98.93% |       61234      0.28%     99.21% |      172029      0.79%    100.00%
system.ruby.L1Cache_Controller.M.Replacement::total     21836295                      
system.ruby.L1Cache_Controller.MI.Fwd_GETX |           3     21.43%     21.43% |           1      7.14%     28.57% |           1      7.14%     35.71% |           9     64.29%    100.00%
system.ruby.L1Cache_Controller.MI.Fwd_GETX::total           14                      
system.ruby.L1Cache_Controller.MI.Inv    |           0      0.00%      0.00% |           2    100.00%    100.00% |           0      0.00%    100.00% |           0      0.00%    100.00%
system.ruby.L1Cache_Controller.MI.Inv::total            2                      
system.ruby.L1Cache_Controller.MI.Writeback_Ack |       45370      0.21%      0.21% |    21557660     98.72%     98.93% |       61233      0.28%     99.21% |      172020      0.79%    100.00%
system.ruby.L1Cache_Controller.MI.Writeback_Ack::total     21836283                      
system.ruby.L1Cache_Controller.IS.Data   |      170105      1.31%      1.31% |    12361031     95.20%     96.51% |      189330      1.46%     97.97% |      263271      2.03%    100.00%
system.ruby.L1Cache_Controller.IS.Data::total     12983737                      
system.ruby.L1Cache_Controller.IM.Data   |       11142      0.12%      0.12% |     9222877     99.26%     99.38% |       11048      0.12%     99.50% |       46355      0.50%    100.00%
system.ruby.L1Cache_Controller.IM.Data::total      9291422                      

---------- End Simulation Statistics   ----------
