
---------- Begin Simulation Statistics ----------
sim_seconds                                  3.929588                       # Number of seconds simulated
sim_ticks                                3929587904500                       # Number of ticks simulated
final_tick                               57030242534001                       # Number of ticks from beginning of simulation (restored from checkpoints and never reset)
sim_freq                                 1000000000000                       # Frequency of simulated ticks
host_inst_rate                                 145862                       # Simulator instruction rate (inst/s)
host_op_rate                                   204497                       # Simulator op (including micro ops) rate (op/s)
host_tick_rate                              254671468                       # Simulator tick rate (ticks/s)
host_mem_usage                                1747932                       # Number of bytes of host memory used
host_seconds                                 15430.03                       # Real time elapsed on the host
sim_insts                                  2250661040                       # Number of instructions simulated
sim_ops                                    3155390526                       # Number of ops (including micro ops) simulated
system.voltage_domain.voltage                       1                       # Voltage in Volts
system.clk_domain.clock                          1000                       # Clock period in ticks
system.mem_ctrls.bytes_read::ruby.dir_cntrl0    123077504                       # Number of bytes read from this memory
system.mem_ctrls.bytes_read::total          123077504                       # Number of bytes read from this memory
system.mem_ctrls.bytes_written::ruby.dir_cntrl0     65849088                       # Number of bytes written to this memory
system.mem_ctrls.bytes_written::total        65849088                       # Number of bytes written to this memory
system.mem_ctrls.num_reads::ruby.dir_cntrl0       961543                       # Number of read requests responded to by this memory
system.mem_ctrls.num_reads::total              961543                       # Number of read requests responded to by this memory
system.mem_ctrls.num_writes::ruby.dir_cntrl0       514446                       # Number of write requests responded to by this memory
system.mem_ctrls.num_writes::total             514446                       # Number of write requests responded to by this memory
system.mem_ctrls.bw_read::ruby.dir_cntrl0     31320715                       # Total read bandwidth from this memory (bytes/s)
system.mem_ctrls.bw_read::total              31320715                       # Total read bandwidth from this memory (bytes/s)
system.mem_ctrls.bw_write::ruby.dir_cntrl0     16757250                       # Write bandwidth from this memory (bytes/s)
system.mem_ctrls.bw_write::total             16757250                       # Write bandwidth from this memory (bytes/s)
system.mem_ctrls.bw_total::ruby.dir_cntrl0     48077966                       # Total bandwidth to/from this memory (bytes/s)
system.mem_ctrls.bw_total::total             48077966                       # Total bandwidth to/from this memory (bytes/s)
system.mem_ctrls.readReqs                      961543                       # Number of read requests accepted
system.mem_ctrls.writeReqs                     514446                       # Number of write requests accepted
system.mem_ctrls.readBursts                   1923086                       # Number of DRAM read bursts, including those serviced by the write queue
system.mem_ctrls.writeBursts                  1028892                       # Number of DRAM write bursts, including those merged in the write queue
system.mem_ctrls.bytesReadDRAM              122968384                       # Total number of bytes read from DRAM
system.mem_ctrls.bytesReadWrQ                  109120                       # Total number of bytes read from write queue
system.mem_ctrls.bytesWritten                65848576                       # Total number of bytes written to DRAM
system.mem_ctrls.bytesReadSys               123077504                       # Total read bytes from the system interface side
system.mem_ctrls.bytesWrittenSys             65849088                       # Total written bytes from the system interface side
system.mem_ctrls.servicedByWrQ                   1705                       # Number of DRAM read bursts serviced by the write queue
system.mem_ctrls.mergedWrBursts                     0                       # Number of DRAM write bursts merged with an existing one
system.mem_ctrls.neitherReadNorWriteReqs            0                       # Number of requests that are neither read nor write
system.mem_ctrls.perBankRdBursts::0            122713                       # Per bank write bursts
system.mem_ctrls.perBankRdBursts::1            122705                       # Per bank write bursts
system.mem_ctrls.perBankRdBursts::2            112418                       # Per bank write bursts
system.mem_ctrls.perBankRdBursts::3            110346                       # Per bank write bursts
system.mem_ctrls.perBankRdBursts::4            121444                       # Per bank write bursts
system.mem_ctrls.perBankRdBursts::5            111895                       # Per bank write bursts
system.mem_ctrls.perBankRdBursts::6            126202                       # Per bank write bursts
system.mem_ctrls.perBankRdBursts::7            119717                       # Per bank write bursts
system.mem_ctrls.perBankRdBursts::8            131032                       # Per bank write bursts
system.mem_ctrls.perBankRdBursts::9            127990                       # Per bank write bursts
system.mem_ctrls.perBankRdBursts::10           130459                       # Per bank write bursts
system.mem_ctrls.perBankRdBursts::11           123107                       # Per bank write bursts
system.mem_ctrls.perBankRdBursts::12           113097                       # Per bank write bursts
system.mem_ctrls.perBankRdBursts::13           115935                       # Per bank write bursts
system.mem_ctrls.perBankRdBursts::14           117061                       # Per bank write bursts
system.mem_ctrls.perBankRdBursts::15           115260                       # Per bank write bursts
system.mem_ctrls.perBankWrBursts::0             65029                       # Per bank write bursts
system.mem_ctrls.perBankWrBursts::1             67325                       # Per bank write bursts
system.mem_ctrls.perBankWrBursts::2             61018                       # Per bank write bursts
system.mem_ctrls.perBankWrBursts::3             58148                       # Per bank write bursts
system.mem_ctrls.perBankWrBursts::4             62452                       # Per bank write bursts
system.mem_ctrls.perBankWrBursts::5             60312                       # Per bank write bursts
system.mem_ctrls.perBankWrBursts::6             67242                       # Per bank write bursts
system.mem_ctrls.perBankWrBursts::7             63750                       # Per bank write bursts
system.mem_ctrls.perBankWrBursts::8             70136                       # Per bank write bursts
system.mem_ctrls.perBankWrBursts::9             67818                       # Per bank write bursts
system.mem_ctrls.perBankWrBursts::10            69350                       # Per bank write bursts
system.mem_ctrls.perBankWrBursts::11            67460                       # Per bank write bursts
system.mem_ctrls.perBankWrBursts::12            62360                       # Per bank write bursts
system.mem_ctrls.perBankWrBursts::13            62904                       # Per bank write bursts
system.mem_ctrls.perBankWrBursts::14            62540                       # Per bank write bursts
system.mem_ctrls.perBankWrBursts::15            61040                       # Per bank write bursts
system.mem_ctrls.numRdRetry                         0                       # Number of times read queue was full causing retry
system.mem_ctrls.numWrRetry                         7                       # Number of times write queue was full causing retry
system.mem_ctrls.totGap                  3929587720000                       # Total gap between requests
system.mem_ctrls.readPktSize::0                     0                       # Read request sizes (log2)
system.mem_ctrls.readPktSize::1                     0                       # Read request sizes (log2)
system.mem_ctrls.readPktSize::2                     0                       # Read request sizes (log2)
system.mem_ctrls.readPktSize::3                     0                       # Read request sizes (log2)
system.mem_ctrls.readPktSize::4                     0                       # Read request sizes (log2)
system.mem_ctrls.readPktSize::5                     0                       # Read request sizes (log2)
system.mem_ctrls.readPktSize::6               1923086                       # Read request sizes (log2)
system.mem_ctrls.writePktSize::0                    0                       # Write request sizes (log2)
system.mem_ctrls.writePktSize::1                    0                       # Write request sizes (log2)
system.mem_ctrls.writePktSize::2                    0                       # Write request sizes (log2)
system.mem_ctrls.writePktSize::3                    0                       # Write request sizes (log2)
system.mem_ctrls.writePktSize::4                    0                       # Write request sizes (log2)
system.mem_ctrls.writePktSize::5                    0                       # Write request sizes (log2)
system.mem_ctrls.writePktSize::6              1028892                       # Write request sizes (log2)
system.mem_ctrls.rdQLenPdf::0                  957745                       # What read queue length does an incoming req see
system.mem_ctrls.rdQLenPdf::1                  957996                       # What read queue length does an incoming req see
system.mem_ctrls.rdQLenPdf::2                    2973                       # What read queue length does an incoming req see
system.mem_ctrls.rdQLenPdf::3                    2667                       # What read queue length does an incoming req see
system.mem_ctrls.rdQLenPdf::4                       0                       # What read queue length does an incoming req see
system.mem_ctrls.rdQLenPdf::5                       0                       # What read queue length does an incoming req see
system.mem_ctrls.rdQLenPdf::6                       0                       # What read queue length does an incoming req see
system.mem_ctrls.rdQLenPdf::7                       0                       # What read queue length does an incoming req see
system.mem_ctrls.rdQLenPdf::8                       0                       # What read queue length does an incoming req see
system.mem_ctrls.rdQLenPdf::9                       0                       # What read queue length does an incoming req see
system.mem_ctrls.rdQLenPdf::10                      0                       # What read queue length does an incoming req see
system.mem_ctrls.rdQLenPdf::11                      0                       # What read queue length does an incoming req see
system.mem_ctrls.rdQLenPdf::12                      0                       # What read queue length does an incoming req see
system.mem_ctrls.rdQLenPdf::13                      0                       # What read queue length does an incoming req see
system.mem_ctrls.rdQLenPdf::14                      0                       # What read queue length does an incoming req see
system.mem_ctrls.rdQLenPdf::15                      0                       # What read queue length does an incoming req see
system.mem_ctrls.rdQLenPdf::16                      0                       # What read queue length does an incoming req see
system.mem_ctrls.rdQLenPdf::17                      0                       # What read queue length does an incoming req see
system.mem_ctrls.rdQLenPdf::18                      0                       # What read queue length does an incoming req see
system.mem_ctrls.rdQLenPdf::19                      0                       # What read queue length does an incoming req see
system.mem_ctrls.rdQLenPdf::20                      0                       # What read queue length does an incoming req see
system.mem_ctrls.rdQLenPdf::21                      0                       # What read queue length does an incoming req see
system.mem_ctrls.rdQLenPdf::22                      0                       # What read queue length does an incoming req see
system.mem_ctrls.rdQLenPdf::23                      0                       # What read queue length does an incoming req see
system.mem_ctrls.rdQLenPdf::24                      0                       # What read queue length does an incoming req see
system.mem_ctrls.rdQLenPdf::25                      0                       # What read queue length does an incoming req see
system.mem_ctrls.rdQLenPdf::26                      0                       # What read queue length does an incoming req see
system.mem_ctrls.rdQLenPdf::27                      0                       # What read queue length does an incoming req see
system.mem_ctrls.rdQLenPdf::28                      0                       # What read queue length does an incoming req see
system.mem_ctrls.rdQLenPdf::29                      0                       # What read queue length does an incoming req see
system.mem_ctrls.rdQLenPdf::30                      0                       # What read queue length does an incoming req see
system.mem_ctrls.rdQLenPdf::31                      0                       # What read queue length does an incoming req see
system.mem_ctrls.wrQLenPdf::0                       0                       # What write queue length does an incoming req see
system.mem_ctrls.wrQLenPdf::1                       0                       # What write queue length does an incoming req see
system.mem_ctrls.wrQLenPdf::2                       0                       # What write queue length does an incoming req see
system.mem_ctrls.wrQLenPdf::3                       0                       # What write queue length does an incoming req see
system.mem_ctrls.wrQLenPdf::4                       0                       # What write queue length does an incoming req see
system.mem_ctrls.wrQLenPdf::5                       0                       # What write queue length does an incoming req see
system.mem_ctrls.wrQLenPdf::6                       0                       # What write queue length does an incoming req see
system.mem_ctrls.wrQLenPdf::7                       0                       # What write queue length does an incoming req see
system.mem_ctrls.wrQLenPdf::8                       0                       # What write queue length does an incoming req see
system.mem_ctrls.wrQLenPdf::9                       0                       # What write queue length does an incoming req see
system.mem_ctrls.wrQLenPdf::10                      0                       # What write queue length does an incoming req see
system.mem_ctrls.wrQLenPdf::11                      0                       # What write queue length does an incoming req see
system.mem_ctrls.wrQLenPdf::12                      0                       # What write queue length does an incoming req see
system.mem_ctrls.wrQLenPdf::13                      0                       # What write queue length does an incoming req see
system.mem_ctrls.wrQLenPdf::14                      0                       # What write queue length does an incoming req see
system.mem_ctrls.wrQLenPdf::15                   1879                       # What write queue length does an incoming req see
system.mem_ctrls.wrQLenPdf::16                   2057                       # What write queue length does an incoming req see
system.mem_ctrls.wrQLenPdf::17                  57323                       # What write queue length does an incoming req see
system.mem_ctrls.wrQLenPdf::18                  63634                       # What write queue length does an incoming req see
system.mem_ctrls.wrQLenPdf::19                  63907                       # What write queue length does an incoming req see
system.mem_ctrls.wrQLenPdf::20                  64026                       # What write queue length does an incoming req see
system.mem_ctrls.wrQLenPdf::21                  64055                       # What write queue length does an incoming req see
system.mem_ctrls.wrQLenPdf::22                  64086                       # What write queue length does an incoming req see
system.mem_ctrls.wrQLenPdf::23                  64096                       # What write queue length does an incoming req see
system.mem_ctrls.wrQLenPdf::24                  64123                       # What write queue length does an incoming req see
system.mem_ctrls.wrQLenPdf::25                  64118                       # What write queue length does an incoming req see
system.mem_ctrls.wrQLenPdf::26                  64126                       # What write queue length does an incoming req see
system.mem_ctrls.wrQLenPdf::27                  64119                       # What write queue length does an incoming req see
system.mem_ctrls.wrQLenPdf::28                  64085                       # What write queue length does an incoming req see
system.mem_ctrls.wrQLenPdf::29                  64086                       # What write queue length does an incoming req see
system.mem_ctrls.wrQLenPdf::30                  64075                       # What write queue length does an incoming req see
system.mem_ctrls.wrQLenPdf::31                  64032                       # What write queue length does an incoming req see
system.mem_ctrls.wrQLenPdf::32                  64025                       # What write queue length does an incoming req see
system.mem_ctrls.wrQLenPdf::33                   6640                       # What write queue length does an incoming req see
system.mem_ctrls.wrQLenPdf::34                     28                       # What write queue length does an incoming req see
system.mem_ctrls.wrQLenPdf::35                     16                       # What write queue length does an incoming req see
system.mem_ctrls.wrQLenPdf::36                     14                       # What write queue length does an incoming req see
system.mem_ctrls.wrQLenPdf::37                     13                       # What write queue length does an incoming req see
system.mem_ctrls.wrQLenPdf::38                     10                       # What write queue length does an incoming req see
system.mem_ctrls.wrQLenPdf::39                     10                       # What write queue length does an incoming req see
system.mem_ctrls.wrQLenPdf::40                     14                       # What write queue length does an incoming req see
system.mem_ctrls.wrQLenPdf::41                     14                       # What write queue length does an incoming req see
system.mem_ctrls.wrQLenPdf::42                     12                       # What write queue length does an incoming req see
system.mem_ctrls.wrQLenPdf::43                     14                       # What write queue length does an incoming req see
system.mem_ctrls.wrQLenPdf::44                     16                       # What write queue length does an incoming req see
system.mem_ctrls.wrQLenPdf::45                     15                       # What write queue length does an incoming req see
system.mem_ctrls.wrQLenPdf::46                     18                       # What write queue length does an incoming req see
system.mem_ctrls.wrQLenPdf::47                     21                       # What write queue length does an incoming req see
system.mem_ctrls.wrQLenPdf::48                     13                       # What write queue length does an incoming req see
system.mem_ctrls.wrQLenPdf::49                     10                       # What write queue length does an incoming req see
system.mem_ctrls.wrQLenPdf::50                     15                       # What write queue length does an incoming req see
system.mem_ctrls.wrQLenPdf::51                     16                       # What write queue length does an incoming req see
system.mem_ctrls.wrQLenPdf::52                     17                       # What write queue length does an incoming req see
system.mem_ctrls.wrQLenPdf::53                     13                       # What write queue length does an incoming req see
system.mem_ctrls.wrQLenPdf::54                     12                       # What write queue length does an incoming req see
system.mem_ctrls.wrQLenPdf::55                     11                       # What write queue length does an incoming req see
system.mem_ctrls.wrQLenPdf::56                     11                       # What write queue length does an incoming req see
system.mem_ctrls.wrQLenPdf::57                     11                       # What write queue length does an incoming req see
system.mem_ctrls.wrQLenPdf::58                      9                       # What write queue length does an incoming req see
system.mem_ctrls.wrQLenPdf::59                     11                       # What write queue length does an incoming req see
system.mem_ctrls.wrQLenPdf::60                      9                       # What write queue length does an incoming req see
system.mem_ctrls.wrQLenPdf::61                      9                       # What write queue length does an incoming req see
system.mem_ctrls.wrQLenPdf::62                     11                       # What write queue length does an incoming req see
system.mem_ctrls.wrQLenPdf::63                      7                       # What write queue length does an incoming req see
system.mem_ctrls.bytesPerActivate::samples      1017561                       # Bytes accessed per row activation
system.mem_ctrls.bytesPerActivate::mean    185.558495                       # Bytes accessed per row activation
system.mem_ctrls.bytesPerActivate::gmean   152.894824                       # Bytes accessed per row activation
system.mem_ctrls.bytesPerActivate::stdev   166.711626                       # Bytes accessed per row activation
system.mem_ctrls.bytesPerActivate::0-127        67710      6.65%      6.65% # Bytes accessed per row activation
system.mem_ctrls.bytesPerActivate::128-255       740867     72.81%     79.46% # Bytes accessed per row activation
system.mem_ctrls.bytesPerActivate::256-383       115195     11.32%     90.78% # Bytes accessed per row activation
system.mem_ctrls.bytesPerActivate::384-511        32433      3.19%     93.97% # Bytes accessed per row activation
system.mem_ctrls.bytesPerActivate::512-639        16107      1.58%     95.55% # Bytes accessed per row activation
system.mem_ctrls.bytesPerActivate::640-767        12548      1.23%     96.79% # Bytes accessed per row activation
system.mem_ctrls.bytesPerActivate::768-895         8765      0.86%     97.65% # Bytes accessed per row activation
system.mem_ctrls.bytesPerActivate::896-1023         6394      0.63%     98.28% # Bytes accessed per row activation
system.mem_ctrls.bytesPerActivate::1024-1151        17542      1.72%    100.00% # Bytes accessed per row activation
system.mem_ctrls.bytesPerActivate::total      1017561                       # Bytes accessed per row activation
system.mem_ctrls.rdPerTurnAround::samples        64018                       # Reads before turning the bus around for writes
system.mem_ctrls.rdPerTurnAround::mean      30.020760                       # Reads before turning the bus around for writes
system.mem_ctrls.rdPerTurnAround::gmean     27.219842                       # Reads before turning the bus around for writes
system.mem_ctrls.rdPerTurnAround::stdev     20.941724                       # Reads before turning the bus around for writes
system.mem_ctrls.rdPerTurnAround::0-63          62076     96.97%     96.97% # Reads before turning the bus around for writes
system.mem_ctrls.rdPerTurnAround::64-127         1601      2.50%     99.47% # Reads before turning the bus around for writes
system.mem_ctrls.rdPerTurnAround::128-191          230      0.36%     99.83% # Reads before turning the bus around for writes
system.mem_ctrls.rdPerTurnAround::192-255           62      0.10%     99.92% # Reads before turning the bus around for writes
system.mem_ctrls.rdPerTurnAround::256-319           18      0.03%     99.95% # Reads before turning the bus around for writes
system.mem_ctrls.rdPerTurnAround::320-383           10      0.02%     99.97% # Reads before turning the bus around for writes
system.mem_ctrls.rdPerTurnAround::384-447            2      0.00%     99.97% # Reads before turning the bus around for writes
system.mem_ctrls.rdPerTurnAround::448-511            9      0.01%     99.98% # Reads before turning the bus around for writes
system.mem_ctrls.rdPerTurnAround::512-575            1      0.00%     99.99% # Reads before turning the bus around for writes
system.mem_ctrls.rdPerTurnAround::576-639            1      0.00%     99.99% # Reads before turning the bus around for writes
system.mem_ctrls.rdPerTurnAround::768-831            3      0.00%     99.99% # Reads before turning the bus around for writes
system.mem_ctrls.rdPerTurnAround::832-895            1      0.00%     99.99% # Reads before turning the bus around for writes
system.mem_ctrls.rdPerTurnAround::896-959            1      0.00%    100.00% # Reads before turning the bus around for writes
system.mem_ctrls.rdPerTurnAround::960-1023            1      0.00%    100.00% # Reads before turning the bus around for writes
system.mem_ctrls.rdPerTurnAround::1088-1151            1      0.00%    100.00% # Reads before turning the bus around for writes
system.mem_ctrls.rdPerTurnAround::1216-1279            1      0.00%    100.00% # Reads before turning the bus around for writes
system.mem_ctrls.rdPerTurnAround::total         64018                       # Reads before turning the bus around for writes
system.mem_ctrls.wrPerTurnAround::samples        64018                       # Writes before turning the bus around for reads
system.mem_ctrls.wrPerTurnAround::mean      16.071792                       # Writes before turning the bus around for reads
system.mem_ctrls.wrPerTurnAround::gmean     16.067254                       # Writes before turning the bus around for reads
system.mem_ctrls.wrPerTurnAround::stdev      0.403525                       # Writes before turning the bus around for reads
system.mem_ctrls.wrPerTurnAround::16            61801     96.54%     96.54% # Writes before turning the bus around for reads
system.mem_ctrls.wrPerTurnAround::17              156      0.24%     96.78% # Writes before turning the bus around for reads
system.mem_ctrls.wrPerTurnAround::18             1848      2.89%     99.67% # Writes before turning the bus around for reads
system.mem_ctrls.wrPerTurnAround::19              183      0.29%     99.95% # Writes before turning the bus around for reads
system.mem_ctrls.wrPerTurnAround::20               14      0.02%     99.98% # Writes before turning the bus around for reads
system.mem_ctrls.wrPerTurnAround::21                4      0.01%     99.98% # Writes before turning the bus around for reads
system.mem_ctrls.wrPerTurnAround::22                1      0.00%     99.98% # Writes before turning the bus around for reads
system.mem_ctrls.wrPerTurnAround::23                1      0.00%     99.98% # Writes before turning the bus around for reads
system.mem_ctrls.wrPerTurnAround::24                1      0.00%     99.99% # Writes before turning the bus around for reads
system.mem_ctrls.wrPerTurnAround::25                2      0.00%     99.99% # Writes before turning the bus around for reads
system.mem_ctrls.wrPerTurnAround::26                1      0.00%     99.99% # Writes before turning the bus around for reads
system.mem_ctrls.wrPerTurnAround::27                4      0.01%    100.00% # Writes before turning the bus around for reads
system.mem_ctrls.wrPerTurnAround::28                1      0.00%    100.00% # Writes before turning the bus around for reads
system.mem_ctrls.wrPerTurnAround::30                1      0.00%    100.00% # Writes before turning the bus around for reads
system.mem_ctrls.wrPerTurnAround::total         64018                       # Writes before turning the bus around for reads
system.mem_ctrls.totQLat                  48276526252                       # Total ticks spent queuing
system.mem_ctrls.totMemAccLat             84302420002                       # Total ticks spent from burst creation until serviced by the DRAM
system.mem_ctrls.totBusLat                 9606905000                       # Total ticks spent in databus transfers
system.mem_ctrls.avgQLat                     25125.95                       # Average queueing delay per DRAM burst
system.mem_ctrls.avgBusLat                    5000.00                       # Average bus latency per DRAM burst
system.mem_ctrls.avgMemAccLat                43875.95                       # Average memory access latency per DRAM burst
system.mem_ctrls.avgRdBW                        31.29                       # Average DRAM read bandwidth in MiByte/s
system.mem_ctrls.avgWrBW                        16.76                       # Average achieved write bandwidth in MiByte/s
system.mem_ctrls.avgRdBWSys                     31.32                       # Average system read bandwidth in MiByte/s
system.mem_ctrls.avgWrBWSys                     16.76                       # Average system write bandwidth in MiByte/s
system.mem_ctrls.peakBW                      12800.00                       # Theoretical peak bandwidth in MiByte/s
system.mem_ctrls.busUtil                         0.38                       # Data bus utilization in percentage
system.mem_ctrls.busUtilRead                     0.24                       # Data bus utilization in percentage for reads
system.mem_ctrls.busUtilWrite                    0.13                       # Data bus utilization in percentage for writes
system.mem_ctrls.avgRdQLen                       2.00                       # Average read queue length when enqueuing
system.mem_ctrls.avgWrQLen                      26.04                       # Average write queue length when enqueuing
system.mem_ctrls.readRowHits                  1345809                       # Number of row buffer hits during reads
system.mem_ctrls.writeRowHits                  586896                       # Number of row buffer hits during writes
system.mem_ctrls.readRowHitRate                 70.04                       # Row buffer hit rate for reads
system.mem_ctrls.writeRowHitRate                57.04                       # Row buffer hit rate for writes
system.mem_ctrls.avgGap                    2662342.14                       # Average gap between requests
system.mem_ctrls.pageHitRate                    65.51                       # Row buffer hit rate, read and write combined
system.mem_ctrls_0.actEnergy               3782986200                       # Energy for activate commands per rank (pJ)
system.mem_ctrls_0.preEnergy               2064129375                       # Energy for precharge commands per rank (pJ)
system.mem_ctrls_0.readEnergy              7463937000                       # Energy for read commands per rank (pJ)
system.mem_ctrls_0.writeEnergy             3274428240                       # Energy for write commands per rank (pJ)
system.mem_ctrls_0.refreshEnergy         256866536160                       # Energy for refresh commands per rank (pJ)
system.mem_ctrls_0.actBackEnergy         390934717740                       # Energy for active background per rank (pJ)
system.mem_ctrls_0.preBackEnergy         2016710490000                       # Energy for precharge background per rank (pJ)
system.mem_ctrls_0.totalEnergy           2681097224715                       # Total energy per rank (pJ)
system.mem_ctrls_0.averagePower            681.740130                       # Core power per rank (mW)
system.mem_ctrls_0.memoryStateTime::IDLE 3351369810000                       # Time in different power states
system.mem_ctrls_0.memoryStateTime::REF  131217580000                       # Time in different power states
system.mem_ctrls_0.memoryStateTime::PRE_PDN            0                       # Time in different power states
system.mem_ctrls_0.memoryStateTime::ACT  447000625750                       # Time in different power states
system.mem_ctrls_0.memoryStateTime::ACT_PDN            0                       # Time in different power states
system.mem_ctrls_1.actEnergy               3934465920                       # Energy for activate commands per rank (pJ)
system.mem_ctrls_1.preEnergy               2146782000                       # Energy for precharge commands per rank (pJ)
system.mem_ctrls_1.readEnergy              7660325400                       # Energy for read commands per rank (pJ)
system.mem_ctrls_1.writeEnergy             3393070560                       # Energy for write commands per rank (pJ)
system.mem_ctrls_1.refreshEnergy         256866536160                       # Energy for refresh commands per rank (pJ)
system.mem_ctrls_1.actBackEnergy         393596599500                       # Energy for active background per rank (pJ)
system.mem_ctrls_1.preBackEnergy         2014375501500                       # Energy for precharge background per rank (pJ)
system.mem_ctrls_1.totalEnergy           2681973281040                       # Total energy per rank (pJ)
system.mem_ctrls_1.averagePower            681.962891                       # Core power per rank (mW)
system.mem_ctrls_1.memoryStateTime::IDLE 3347582700500                       # Time in different power states
system.mem_ctrls_1.memoryStateTime::REF  131217580000                       # Time in different power states
system.mem_ctrls_1.memoryStateTime::PRE_PDN            0                       # Time in different power states
system.mem_ctrls_1.memoryStateTime::ACT  450787742000                       # Time in different power states
system.mem_ctrls_1.memoryStateTime::ACT_PDN            0                       # Time in different power states
system.cpu_voltage_domain.voltage                   1                       # Voltage in Volts
system.cpu_clk_domain.clock                       500                       # Clock period in ticks
system.cpu0.apic_clk_domain.clock                8000                       # Clock period in ticks
system.cpu0.numCycles                      7860175070                       # number of cpu cycles simulated
system.cpu0.numWorkItemsStarted                     0                       # number of work items this cpu started
system.cpu0.numWorkItemsCompleted                   0                       # number of work items this cpu completed
system.cpu0.kern.inst.arm                           0                       # number of arm instructions executed
system.cpu0.kern.inst.quiesce                       0                       # number of quiesce instructions executed
system.cpu0.committedInsts                    3246062                       # Number of instructions committed
system.cpu0.committedOps                      7059788                       # Number of ops (including micro ops) committed
system.cpu0.num_int_alu_accesses              6906879                       # Number of integer alu accesses
system.cpu0.num_fp_alu_accesses                    39                       # Number of float alu accesses
system.cpu0.num_func_calls                     206928                       # number of times a function call or return occured
system.cpu0.num_conditional_control_insts       472166                       # number of instructions that are conditional controls
system.cpu0.num_int_insts                     6906879                       # number of integer instructions
system.cpu0.num_fp_insts                           39                       # number of float instructions
system.cpu0.num_int_register_reads           14030989                       # number of times the integer registers were read
system.cpu0.num_int_register_writes           5722692                       # number of times the integer registers were written
system.cpu0.num_fp_register_reads                  63                       # number of times the floating registers were read
system.cpu0.num_fp_register_writes                 31                       # number of times the floating registers were written
system.cpu0.num_cc_register_reads             3925451                       # number of times the CC registers were read
system.cpu0.num_cc_register_writes            2117776                       # number of times the CC registers were written
system.cpu0.num_mem_refs                      1661330                       # number of memory refs
system.cpu0.num_load_insts                    1024993                       # Number of load instructions
system.cpu0.num_store_insts                    636337                       # Number of store instructions
system.cpu0.num_idle_cycles              7845691687.733249                       # Number of idle cycles
system.cpu0.num_busy_cycles              14483382.266752                       # Number of busy cycles
system.cpu0.not_idle_fraction                0.001843                       # Percentage of non-idle cycles
system.cpu0.idle_fraction                    0.998157                       # Percentage of idle cycles
system.cpu0.Branches                           742308                       # Number of branches fetched
system.cpu0.op_class::No_OpClass               123676      1.75%      1.75% # Class of executed instruction
system.cpu0.op_class::IntAlu                  5219862     73.94%     75.69% # Class of executed instruction
system.cpu0.op_class::IntMult                   13200      0.19%     75.88% # Class of executed instruction
system.cpu0.op_class::IntDiv                    41712      0.59%     76.47% # Class of executed instruction
system.cpu0.op_class::FloatAdd                     30      0.00%     76.47% # Class of executed instruction
system.cpu0.op_class::FloatCmp                      0      0.00%     76.47% # Class of executed instruction
system.cpu0.op_class::FloatCvt                      0      0.00%     76.47% # Class of executed instruction
system.cpu0.op_class::FloatMult                     0      0.00%     76.47% # Class of executed instruction
system.cpu0.op_class::FloatDiv                      0      0.00%     76.47% # Class of executed instruction
system.cpu0.op_class::FloatSqrt                     0      0.00%     76.47% # Class of executed instruction
system.cpu0.op_class::SimdAdd                       0      0.00%     76.47% # Class of executed instruction
system.cpu0.op_class::SimdAddAcc                    0      0.00%     76.47% # Class of executed instruction
system.cpu0.op_class::SimdAlu                       0      0.00%     76.47% # Class of executed instruction
system.cpu0.op_class::SimdCmp                       0      0.00%     76.47% # Class of executed instruction
system.cpu0.op_class::SimdCvt                       0      0.00%     76.47% # Class of executed instruction
system.cpu0.op_class::SimdMisc                      0      0.00%     76.47% # Class of executed instruction
system.cpu0.op_class::SimdMult                      0      0.00%     76.47% # Class of executed instruction
system.cpu0.op_class::SimdMultAcc                   0      0.00%     76.47% # Class of executed instruction
system.cpu0.op_class::SimdShift                     0      0.00%     76.47% # Class of executed instruction
system.cpu0.op_class::SimdShiftAcc                  0      0.00%     76.47% # Class of executed instruction
system.cpu0.op_class::SimdSqrt                      0      0.00%     76.47% # Class of executed instruction
system.cpu0.op_class::SimdFloatAdd                  0      0.00%     76.47% # Class of executed instruction
system.cpu0.op_class::SimdFloatAlu                  0      0.00%     76.47% # Class of executed instruction
system.cpu0.op_class::SimdFloatCmp                  0      0.00%     76.47% # Class of executed instruction
system.cpu0.op_class::SimdFloatCvt                  0      0.00%     76.47% # Class of executed instruction
system.cpu0.op_class::SimdFloatDiv                  0      0.00%     76.47% # Class of executed instruction
system.cpu0.op_class::SimdFloatMisc                 0      0.00%     76.47% # Class of executed instruction
system.cpu0.op_class::SimdFloatMult                 0      0.00%     76.47% # Class of executed instruction
system.cpu0.op_class::SimdFloatMultAcc              0      0.00%     76.47% # Class of executed instruction
system.cpu0.op_class::SimdFloatSqrt                 0      0.00%     76.47% # Class of executed instruction
system.cpu0.op_class::MemRead                 1024993     14.52%     90.99% # Class of executed instruction
system.cpu0.op_class::MemWrite                 636337      9.01%    100.00% # Class of executed instruction
system.cpu0.op_class::IprAccess                     0      0.00%    100.00% # Class of executed instruction
system.cpu0.op_class::InstPrefetch                  0      0.00%    100.00% # Class of executed instruction
system.cpu0.op_class::total                   7059810                       # Class of executed instruction
system.cpu1.apic_clk_domain.clock                8000                       # Clock period in ticks
system.cpu1.numCycles                      7860998915                       # number of cpu cycles simulated
system.cpu1.numWorkItemsStarted                     0                       # number of work items this cpu started
system.cpu1.numWorkItemsCompleted                   0                       # number of work items this cpu completed
system.cpu1.kern.inst.arm                           0                       # number of arm instructions executed
system.cpu1.kern.inst.quiesce                       0                       # number of quiesce instructions executed
system.cpu1.committedInsts                 2239526398                       # Number of instructions committed
system.cpu1.committedOps                   3132004499                       # Number of ops (including micro ops) committed
system.cpu1.num_int_alu_accesses           1365047716                       # Number of integer alu accesses
system.cpu1.num_fp_alu_accesses            2127680380                       # Number of float alu accesses
system.cpu1.num_func_calls                    4837722                       # number of times a function call or return occured
system.cpu1.num_conditional_control_insts    125349239                       # number of instructions that are conditional controls
system.cpu1.num_int_insts                  1365047716                       # number of integer instructions
system.cpu1.num_fp_insts                   2127680380                       # number of float instructions
system.cpu1.num_int_register_reads         2745616630                       # number of times the integer registers were read
system.cpu1.num_int_register_writes         828514665                       # number of times the integer registers were written
system.cpu1.num_fp_register_reads          4601234200                       # number of times the floating registers were read
system.cpu1.num_fp_register_writes         2077617928                       # number of times the floating registers were written
system.cpu1.num_cc_register_reads           735932877                       # number of times the CC registers were read
system.cpu1.num_cc_register_writes          430164221                       # number of times the CC registers were written
system.cpu1.num_mem_refs                    408350310                       # number of memory refs
system.cpu1.num_load_insts                  353622114                       # Number of load instructions
system.cpu1.num_store_insts                  54728196                       # Number of store instructions
system.cpu1.num_idle_cycles              4543822.791630                       # Number of idle cycles
system.cpu1.num_busy_cycles              7856455092.208370                       # Number of busy cycles
system.cpu1.not_idle_fraction                0.999422                       # Percentage of non-idle cycles
system.cpu1.idle_fraction                    0.000578                       # Percentage of idle cycles
system.cpu1.Branches                        163316219                       # Number of branches fetched
system.cpu1.op_class::No_OpClass              2281897      0.07%      0.07% # Class of executed instruction
system.cpu1.op_class::IntAlu               1676704309     53.53%     53.61% # Class of executed instruction
system.cpu1.op_class::IntMult                   81888      0.00%     53.61% # Class of executed instruction
system.cpu1.op_class::IntDiv                    99018      0.00%     53.61% # Class of executed instruction
system.cpu1.op_class::FloatAdd             1044495741     33.35%     86.96% # Class of executed instruction
system.cpu1.op_class::FloatCmp                      0      0.00%     86.96% # Class of executed instruction
system.cpu1.op_class::FloatCvt                      0      0.00%     86.96% # Class of executed instruction
system.cpu1.op_class::FloatMult                     0      0.00%     86.96% # Class of executed instruction
system.cpu1.op_class::FloatDiv                      0      0.00%     86.96% # Class of executed instruction
system.cpu1.op_class::FloatSqrt                     0      0.00%     86.96% # Class of executed instruction
system.cpu1.op_class::SimdAdd                       0      0.00%     86.96% # Class of executed instruction
system.cpu1.op_class::SimdAddAcc                    0      0.00%     86.96% # Class of executed instruction
system.cpu1.op_class::SimdAlu                       0      0.00%     86.96% # Class of executed instruction
system.cpu1.op_class::SimdCmp                       0      0.00%     86.96% # Class of executed instruction
system.cpu1.op_class::SimdCvt                       0      0.00%     86.96% # Class of executed instruction
system.cpu1.op_class::SimdMisc                      0      0.00%     86.96% # Class of executed instruction
system.cpu1.op_class::SimdMult                      0      0.00%     86.96% # Class of executed instruction
system.cpu1.op_class::SimdMultAcc                   0      0.00%     86.96% # Class of executed instruction
system.cpu1.op_class::SimdShift                     0      0.00%     86.96% # Class of executed instruction
system.cpu1.op_class::SimdShiftAcc                  0      0.00%     86.96% # Class of executed instruction
system.cpu1.op_class::SimdSqrt                      0      0.00%     86.96% # Class of executed instruction
system.cpu1.op_class::SimdFloatAdd                  0      0.00%     86.96% # Class of executed instruction
system.cpu1.op_class::SimdFloatAlu                  0      0.00%     86.96% # Class of executed instruction
system.cpu1.op_class::SimdFloatCmp                  0      0.00%     86.96% # Class of executed instruction
system.cpu1.op_class::SimdFloatCvt                  0      0.00%     86.96% # Class of executed instruction
system.cpu1.op_class::SimdFloatDiv                  0      0.00%     86.96% # Class of executed instruction
system.cpu1.op_class::SimdFloatMisc                 0      0.00%     86.96% # Class of executed instruction
system.cpu1.op_class::SimdFloatMult                 0      0.00%     86.96% # Class of executed instruction
system.cpu1.op_class::SimdFloatMultAcc              0      0.00%     86.96% # Class of executed instruction
system.cpu1.op_class::SimdFloatSqrt                 0      0.00%     86.96% # Class of executed instruction
system.cpu1.op_class::MemRead               353622114     11.29%     98.25% # Class of executed instruction
system.cpu1.op_class::MemWrite               54728196      1.75%    100.00% # Class of executed instruction
system.cpu1.op_class::IprAccess                     0      0.00%    100.00% # Class of executed instruction
system.cpu1.op_class::InstPrefetch                  0      0.00%    100.00% # Class of executed instruction
system.cpu1.op_class::total                3132013163                       # Class of executed instruction
system.cpu2.apic_clk_domain.clock                8000                       # Clock period in ticks
system.cpu2.numCycles                      7860478874                       # number of cpu cycles simulated
system.cpu2.numWorkItemsStarted                     0                       # number of work items this cpu started
system.cpu2.numWorkItemsCompleted                   0                       # number of work items this cpu completed
system.cpu2.kern.inst.arm                           0                       # number of arm instructions executed
system.cpu2.kern.inst.quiesce                       0                       # number of quiesce instructions executed
system.cpu2.committedInsts                    2755922                       # Number of instructions committed
system.cpu2.committedOps                      5953756                       # Number of ops (including micro ops) committed
system.cpu2.num_int_alu_accesses              5822296                       # Number of integer alu accesses
system.cpu2.num_fp_alu_accesses                     0                       # Number of float alu accesses
system.cpu2.num_func_calls                     164658                       # number of times a function call or return occured
system.cpu2.num_conditional_control_insts       417649                       # number of instructions that are conditional controls
system.cpu2.num_int_insts                     5822296                       # number of integer instructions
system.cpu2.num_fp_insts                            0                       # number of float instructions
system.cpu2.num_int_register_reads           11834729                       # number of times the integer registers were read
system.cpu2.num_int_register_writes           4833506                       # number of times the integer registers were written
system.cpu2.num_fp_register_reads                   0                       # number of times the floating registers were read
system.cpu2.num_fp_register_writes                  0                       # number of times the floating registers were written
system.cpu2.num_cc_register_reads             3346718                       # number of times the CC registers were read
system.cpu2.num_cc_register_writes            1757365                       # number of times the CC registers were written
system.cpu2.num_mem_refs                      1418257                       # number of memory refs
system.cpu2.num_load_insts                     881943                       # Number of load instructions
system.cpu2.num_store_insts                    536314                       # Number of store instructions
system.cpu2.num_idle_cycles              7848004505.070833                       # Number of idle cycles
system.cpu2.num_busy_cycles              12474368.929166                       # Number of busy cycles
system.cpu2.not_idle_fraction                0.001587                       # Percentage of non-idle cycles
system.cpu2.idle_fraction                    0.998413                       # Percentage of idle cycles
system.cpu2.Branches                           635850                       # Number of branches fetched
system.cpu2.op_class::No_OpClass               112373      1.89%      1.89% # Class of executed instruction
system.cpu2.op_class::IntAlu                  4370943     73.41%     75.30% # Class of executed instruction
system.cpu2.op_class::IntMult                   12181      0.20%     75.51% # Class of executed instruction
system.cpu2.op_class::IntDiv                    40005      0.67%     76.18% # Class of executed instruction
system.cpu2.op_class::FloatAdd                      0      0.00%     76.18% # Class of executed instruction
system.cpu2.op_class::FloatCmp                      0      0.00%     76.18% # Class of executed instruction
system.cpu2.op_class::FloatCvt                      0      0.00%     76.18% # Class of executed instruction
system.cpu2.op_class::FloatMult                     0      0.00%     76.18% # Class of executed instruction
system.cpu2.op_class::FloatDiv                      0      0.00%     76.18% # Class of executed instruction
system.cpu2.op_class::FloatSqrt                     0      0.00%     76.18% # Class of executed instruction
system.cpu2.op_class::SimdAdd                       0      0.00%     76.18% # Class of executed instruction
system.cpu2.op_class::SimdAddAcc                    0      0.00%     76.18% # Class of executed instruction
system.cpu2.op_class::SimdAlu                       0      0.00%     76.18% # Class of executed instruction
system.cpu2.op_class::SimdCmp                       0      0.00%     76.18% # Class of executed instruction
system.cpu2.op_class::SimdCvt                       0      0.00%     76.18% # Class of executed instruction
system.cpu2.op_class::SimdMisc                      0      0.00%     76.18% # Class of executed instruction
system.cpu2.op_class::SimdMult                      0      0.00%     76.18% # Class of executed instruction
system.cpu2.op_class::SimdMultAcc                   0      0.00%     76.18% # Class of executed instruction
system.cpu2.op_class::SimdShift                     0      0.00%     76.18% # Class of executed instruction
system.cpu2.op_class::SimdShiftAcc                  0      0.00%     76.18% # Class of executed instruction
system.cpu2.op_class::SimdSqrt                      0      0.00%     76.18% # Class of executed instruction
system.cpu2.op_class::SimdFloatAdd                  0      0.00%     76.18% # Class of executed instruction
system.cpu2.op_class::SimdFloatAlu                  0      0.00%     76.18% # Class of executed instruction
system.cpu2.op_class::SimdFloatCmp                  0      0.00%     76.18% # Class of executed instruction
system.cpu2.op_class::SimdFloatCvt                  0      0.00%     76.18% # Class of executed instruction
system.cpu2.op_class::SimdFloatDiv                  0      0.00%     76.18% # Class of executed instruction
system.cpu2.op_class::SimdFloatMisc                 0      0.00%     76.18% # Class of executed instruction
system.cpu2.op_class::SimdFloatMult                 0      0.00%     76.18% # Class of executed instruction
system.cpu2.op_class::SimdFloatMultAcc              0      0.00%     76.18% # Class of executed instruction
system.cpu2.op_class::SimdFloatSqrt                 0      0.00%     76.18% # Class of executed instruction
system.cpu2.op_class::MemRead                  881943     14.81%     90.99% # Class of executed instruction
system.cpu2.op_class::MemWrite                 536314      9.01%    100.00% # Class of executed instruction
system.cpu2.op_class::IprAccess                     0      0.00%    100.00% # Class of executed instruction
system.cpu2.op_class::InstPrefetch                  0      0.00%    100.00% # Class of executed instruction
system.cpu2.op_class::total                   5953759                       # Class of executed instruction
system.cpu3.apic_clk_domain.clock                8000                       # Clock period in ticks
system.cpu3.numCycles                      7857295685                       # number of cpu cycles simulated
system.cpu3.numWorkItemsStarted                     0                       # number of work items this cpu started
system.cpu3.numWorkItemsCompleted                   0                       # number of work items this cpu completed
system.cpu3.kern.inst.arm                           0                       # number of arm instructions executed
system.cpu3.kern.inst.quiesce                       0                       # number of quiesce instructions executed
system.cpu3.committedInsts                    3732833                       # Number of instructions committed
system.cpu3.committedOps                      7780466                       # Number of ops (including micro ops) committed
system.cpu3.num_int_alu_accesses              7622945                       # Number of integer alu accesses
system.cpu3.num_fp_alu_accesses                  1814                       # Number of float alu accesses
system.cpu3.num_func_calls                     200794                       # number of times a function call or return occured
system.cpu3.num_conditional_control_insts       581791                       # number of instructions that are conditional controls
system.cpu3.num_int_insts                     7622945                       # number of integer instructions
system.cpu3.num_fp_insts                         1814                       # number of float instructions
system.cpu3.num_int_register_reads           15460164                       # number of times the integer registers were read
system.cpu3.num_int_register_writes           6290797                       # number of times the integer registers were written
system.cpu3.num_fp_register_reads                3048                       # number of times the floating registers were read
system.cpu3.num_fp_register_writes               1440                       # number of times the floating registers were written
system.cpu3.num_cc_register_reads             4488823                       # number of times the CC registers were read
system.cpu3.num_cc_register_writes            2413898                       # number of times the CC registers were written
system.cpu3.num_mem_refs                      1822325                       # number of memory refs
system.cpu3.num_load_insts                    1136716                       # Number of load instructions
system.cpu3.num_store_insts                    685609                       # Number of store instructions
system.cpu3.num_idle_cycles              7840466366.988092                       # Number of idle cycles
system.cpu3.num_busy_cycles              16829318.011908                       # Number of busy cycles
system.cpu3.not_idle_fraction                0.002142                       # Percentage of non-idle cycles
system.cpu3.idle_fraction                    0.997858                       # Percentage of idle cycles
system.cpu3.Branches                           846293                       # Number of branches fetched
system.cpu3.op_class::No_OpClass               122685      1.58%      1.58% # Class of executed instruction
system.cpu3.op_class::IntAlu                  5777269     74.25%     75.83% # Class of executed instruction
system.cpu3.op_class::IntMult                   13323      0.17%     76.00% # Class of executed instruction
system.cpu3.op_class::IntDiv                    43587      0.56%     76.56% # Class of executed instruction
system.cpu3.op_class::FloatAdd                   1368      0.02%     76.58% # Class of executed instruction
system.cpu3.op_class::FloatCmp                      0      0.00%     76.58% # Class of executed instruction
system.cpu3.op_class::FloatCvt                      0      0.00%     76.58% # Class of executed instruction
system.cpu3.op_class::FloatMult                     0      0.00%     76.58% # Class of executed instruction
system.cpu3.op_class::FloatDiv                      0      0.00%     76.58% # Class of executed instruction
system.cpu3.op_class::FloatSqrt                     0      0.00%     76.58% # Class of executed instruction
system.cpu3.op_class::SimdAdd                       0      0.00%     76.58% # Class of executed instruction
system.cpu3.op_class::SimdAddAcc                    0      0.00%     76.58% # Class of executed instruction
system.cpu3.op_class::SimdAlu                       0      0.00%     76.58% # Class of executed instruction
system.cpu3.op_class::SimdCmp                       0      0.00%     76.58% # Class of executed instruction
system.cpu3.op_class::SimdCvt                       0      0.00%     76.58% # Class of executed instruction
system.cpu3.op_class::SimdMisc                      0      0.00%     76.58% # Class of executed instruction
system.cpu3.op_class::SimdMult                      0      0.00%     76.58% # Class of executed instruction
system.cpu3.op_class::SimdMultAcc                   0      0.00%     76.58% # Class of executed instruction
system.cpu3.op_class::SimdShift                     0      0.00%     76.58% # Class of executed instruction
system.cpu3.op_class::SimdShiftAcc                  0      0.00%     76.58% # Class of executed instruction
system.cpu3.op_class::SimdSqrt                      0      0.00%     76.58% # Class of executed instruction
system.cpu3.op_class::SimdFloatAdd                  0      0.00%     76.58% # Class of executed instruction
system.cpu3.op_class::SimdFloatAlu                  0      0.00%     76.58% # Class of executed instruction
system.cpu3.op_class::SimdFloatCmp                  0      0.00%     76.58% # Class of executed instruction
system.cpu3.op_class::SimdFloatCvt                  0      0.00%     76.58% # Class of executed instruction
system.cpu3.op_class::SimdFloatDiv                  0      0.00%     76.58% # Class of executed instruction
system.cpu3.op_class::SimdFloatMisc                 0      0.00%     76.58% # Class of executed instruction
system.cpu3.op_class::SimdFloatMult                 0      0.00%     76.58% # Class of executed instruction
system.cpu3.op_class::SimdFloatMultAcc              0      0.00%     76.58% # Class of executed instruction
system.cpu3.op_class::SimdFloatSqrt                 0      0.00%     76.58% # Class of executed instruction
system.cpu3.op_class::MemRead                 1136716     14.61%     91.19% # Class of executed instruction
system.cpu3.op_class::MemWrite                 685609      8.81%    100.00% # Class of executed instruction
system.cpu3.op_class::IprAccess                     0      0.00%    100.00% # Class of executed instruction
system.cpu3.op_class::InstPrefetch                  0      0.00%    100.00% # Class of executed instruction
system.cpu3.op_class::total                   7780557                       # Class of executed instruction
system.iobus.trans_dist::ReadReq                  200                       # Transaction distribution
system.iobus.trans_dist::ReadResp                 200                       # Transaction distribution
system.iobus.trans_dist::WriteReq                4071                       # Transaction distribution
system.iobus.trans_dist::WriteResp               4071                       # Transaction distribution
system.iobus.trans_dist::MessageReq                19                       # Transaction distribution
system.iobus.trans_dist::MessageResp               19                       # Transaction distribution
system.iobus.pkt_count_system.pc.south_bridge.io_apic.int_master::system.ruby.l1_cntrl0.sequencer.pio-slave-port            4                       # Packet count per connected master and slave (bytes)
system.iobus.pkt_count_system.pc.south_bridge.io_apic.int_master::system.ruby.l1_cntrl1.sequencer.pio-slave-port            4                       # Packet count per connected master and slave (bytes)
system.iobus.pkt_count_system.pc.south_bridge.io_apic.int_master::system.ruby.l1_cntrl2.sequencer.pio-slave-port            6                       # Packet count per connected master and slave (bytes)
system.iobus.pkt_count_system.pc.south_bridge.io_apic.int_master::system.ruby.l1_cntrl3.sequencer.pio-slave-port            6                       # Packet count per connected master and slave (bytes)
system.iobus.pkt_count_system.pc.south_bridge.io_apic.int_master::total           20                       # Packet count per connected master and slave (bytes)
system.iobus.pkt_count_system.ruby.l1_cntrl0.sequencer.mem-master-port::system.pc.south_bridge.ide.pio           46                       # Packet count per connected master and slave (bytes)
system.iobus.pkt_count_system.ruby.l1_cntrl0.sequencer.mem-master-port::system.pc.south_bridge.io_apic.pio            8                       # Packet count per connected master and slave (bytes)
system.iobus.pkt_count_system.ruby.l1_cntrl0.sequencer.mem-master-port::system.ruby.l1_cntrl0.sequencer.pio-slave-port         1978                       # Packet count per connected master and slave (bytes)
system.iobus.pkt_count_system.ruby.l1_cntrl0.sequencer.mem-master-port::system.ruby.l1_cntrl1.sequencer.pio-slave-port            2                       # Packet count per connected master and slave (bytes)
system.iobus.pkt_count_system.ruby.l1_cntrl0.sequencer.mem-master-port::total         2034                       # Packet count per connected master and slave (bytes)
system.iobus.pkt_count_system.ruby.l1_cntrl1.sequencer.mem-master-port::system.pc.south_bridge.ide.pio           34                       # Packet count per connected master and slave (bytes)
system.iobus.pkt_count_system.ruby.l1_cntrl1.sequencer.mem-master-port::system.pc.south_bridge.io_apic.pio           12                       # Packet count per connected master and slave (bytes)
system.iobus.pkt_count_system.ruby.l1_cntrl1.sequencer.mem-master-port::system.pc.com_1.pio          196                       # Packet count per connected master and slave (bytes)
system.iobus.pkt_count_system.ruby.l1_cntrl1.sequencer.mem-master-port::system.ruby.l1_cntrl0.sequencer.pio-slave-port            2                       # Packet count per connected master and slave (bytes)
system.iobus.pkt_count_system.ruby.l1_cntrl1.sequencer.mem-master-port::system.ruby.l1_cntrl1.sequencer.pio-slave-port         1998                       # Packet count per connected master and slave (bytes)
system.iobus.pkt_count_system.ruby.l1_cntrl1.sequencer.mem-master-port::system.ruby.l1_cntrl2.sequencer.pio-slave-port            6                       # Packet count per connected master and slave (bytes)
system.iobus.pkt_count_system.ruby.l1_cntrl1.sequencer.mem-master-port::total         2248                       # Packet count per connected master and slave (bytes)
system.iobus.pkt_count_system.ruby.l1_cntrl2.sequencer.mem-master-port::system.pc.south_bridge.io_apic.pio           22                       # Packet count per connected master and slave (bytes)
system.iobus.pkt_count_system.ruby.l1_cntrl2.sequencer.mem-master-port::system.pc.com_1.pio          244                       # Packet count per connected master and slave (bytes)
system.iobus.pkt_count_system.ruby.l1_cntrl2.sequencer.mem-master-port::system.ruby.l1_cntrl2.sequencer.pio-slave-port         1986                       # Packet count per connected master and slave (bytes)
system.iobus.pkt_count_system.ruby.l1_cntrl2.sequencer.mem-master-port::system.ruby.l1_cntrl3.sequencer.pio-slave-port            2                       # Packet count per connected master and slave (bytes)
system.iobus.pkt_count_system.ruby.l1_cntrl2.sequencer.mem-master-port::total         2254                       # Packet count per connected master and slave (bytes)
system.iobus.pkt_count_system.ruby.l1_cntrl3.sequencer.mem-master-port::system.pc.south_bridge.ide.pio           12                       # Packet count per connected master and slave (bytes)
system.iobus.pkt_count_system.ruby.l1_cntrl3.sequencer.mem-master-port::system.pc.south_bridge.io_apic.pio           16                       # Packet count per connected master and slave (bytes)
system.iobus.pkt_count_system.ruby.l1_cntrl3.sequencer.mem-master-port::system.ruby.l1_cntrl0.sequencer.pio-slave-port            2                       # Packet count per connected master and slave (bytes)
system.iobus.pkt_count_system.ruby.l1_cntrl3.sequencer.mem-master-port::system.ruby.l1_cntrl1.sequencer.pio-slave-port            2                       # Packet count per connected master and slave (bytes)
system.iobus.pkt_count_system.ruby.l1_cntrl3.sequencer.mem-master-port::system.ruby.l1_cntrl2.sequencer.pio-slave-port            2                       # Packet count per connected master and slave (bytes)
system.iobus.pkt_count_system.ruby.l1_cntrl3.sequencer.mem-master-port::system.ruby.l1_cntrl3.sequencer.pio-slave-port         1990                       # Packet count per connected master and slave (bytes)
system.iobus.pkt_count_system.ruby.l1_cntrl3.sequencer.mem-master-port::total         2024                       # Packet count per connected master and slave (bytes)
system.iobus.pkt_count::total                    8580                       # Packet count per connected master and slave (bytes)
system.iobus.pkt_size_system.pc.south_bridge.io_apic.int_master::system.ruby.l1_cntrl0.sequencer.pio-slave-port            8                       # Cumulative packet size per connected master and slave (bytes)
system.iobus.pkt_size_system.pc.south_bridge.io_apic.int_master::system.ruby.l1_cntrl1.sequencer.pio-slave-port            8                       # Cumulative packet size per connected master and slave (bytes)
system.iobus.pkt_size_system.pc.south_bridge.io_apic.int_master::system.ruby.l1_cntrl2.sequencer.pio-slave-port           12                       # Cumulative packet size per connected master and slave (bytes)
system.iobus.pkt_size_system.pc.south_bridge.io_apic.int_master::system.ruby.l1_cntrl3.sequencer.pio-slave-port           12                       # Cumulative packet size per connected master and slave (bytes)
system.iobus.pkt_size_system.pc.south_bridge.io_apic.int_master::total           40                       # Cumulative packet size per connected master and slave (bytes)
system.iobus.pkt_size_system.ruby.l1_cntrl0.sequencer.mem-master-port::system.pc.south_bridge.ide.pio           26                       # Cumulative packet size per connected master and slave (bytes)
system.iobus.pkt_size_system.ruby.l1_cntrl0.sequencer.mem-master-port::system.pc.south_bridge.io_apic.pio           16                       # Cumulative packet size per connected master and slave (bytes)
system.iobus.pkt_size_system.ruby.l1_cntrl0.sequencer.mem-master-port::system.ruby.l1_cntrl0.sequencer.pio-slave-port         3956                       # Cumulative packet size per connected master and slave (bytes)
system.iobus.pkt_size_system.ruby.l1_cntrl0.sequencer.mem-master-port::system.ruby.l1_cntrl1.sequencer.pio-slave-port            4                       # Cumulative packet size per connected master and slave (bytes)
system.iobus.pkt_size_system.ruby.l1_cntrl0.sequencer.mem-master-port::total         4002                       # Cumulative packet size per connected master and slave (bytes)
system.iobus.pkt_size_system.ruby.l1_cntrl1.sequencer.mem-master-port::system.pc.south_bridge.ide.pio           20                       # Cumulative packet size per connected master and slave (bytes)
system.iobus.pkt_size_system.ruby.l1_cntrl1.sequencer.mem-master-port::system.pc.south_bridge.io_apic.pio           24                       # Cumulative packet size per connected master and slave (bytes)
system.iobus.pkt_size_system.ruby.l1_cntrl1.sequencer.mem-master-port::system.pc.com_1.pio           98                       # Cumulative packet size per connected master and slave (bytes)
system.iobus.pkt_size_system.ruby.l1_cntrl1.sequencer.mem-master-port::system.ruby.l1_cntrl0.sequencer.pio-slave-port            4                       # Cumulative packet size per connected master and slave (bytes)
system.iobus.pkt_size_system.ruby.l1_cntrl1.sequencer.mem-master-port::system.ruby.l1_cntrl1.sequencer.pio-slave-port         3996                       # Cumulative packet size per connected master and slave (bytes)
system.iobus.pkt_size_system.ruby.l1_cntrl1.sequencer.mem-master-port::system.ruby.l1_cntrl2.sequencer.pio-slave-port           12                       # Cumulative packet size per connected master and slave (bytes)
system.iobus.pkt_size_system.ruby.l1_cntrl1.sequencer.mem-master-port::total         4154                       # Cumulative packet size per connected master and slave (bytes)
system.iobus.pkt_size_system.ruby.l1_cntrl2.sequencer.mem-master-port::system.pc.south_bridge.io_apic.pio           44                       # Cumulative packet size per connected master and slave (bytes)
system.iobus.pkt_size_system.ruby.l1_cntrl2.sequencer.mem-master-port::system.pc.com_1.pio          122                       # Cumulative packet size per connected master and slave (bytes)
system.iobus.pkt_size_system.ruby.l1_cntrl2.sequencer.mem-master-port::system.ruby.l1_cntrl2.sequencer.pio-slave-port         3972                       # Cumulative packet size per connected master and slave (bytes)
system.iobus.pkt_size_system.ruby.l1_cntrl2.sequencer.mem-master-port::system.ruby.l1_cntrl3.sequencer.pio-slave-port            4                       # Cumulative packet size per connected master and slave (bytes)
system.iobus.pkt_size_system.ruby.l1_cntrl2.sequencer.mem-master-port::total         4142                       # Cumulative packet size per connected master and slave (bytes)
system.iobus.pkt_size_system.ruby.l1_cntrl3.sequencer.mem-master-port::system.pc.south_bridge.ide.pio            6                       # Cumulative packet size per connected master and slave (bytes)
system.iobus.pkt_size_system.ruby.l1_cntrl3.sequencer.mem-master-port::system.pc.south_bridge.io_apic.pio           32                       # Cumulative packet size per connected master and slave (bytes)
system.iobus.pkt_size_system.ruby.l1_cntrl3.sequencer.mem-master-port::system.ruby.l1_cntrl0.sequencer.pio-slave-port            4                       # Cumulative packet size per connected master and slave (bytes)
system.iobus.pkt_size_system.ruby.l1_cntrl3.sequencer.mem-master-port::system.ruby.l1_cntrl1.sequencer.pio-slave-port            4                       # Cumulative packet size per connected master and slave (bytes)
system.iobus.pkt_size_system.ruby.l1_cntrl3.sequencer.mem-master-port::system.ruby.l1_cntrl2.sequencer.pio-slave-port            4                       # Cumulative packet size per connected master and slave (bytes)
system.iobus.pkt_size_system.ruby.l1_cntrl3.sequencer.mem-master-port::system.ruby.l1_cntrl3.sequencer.pio-slave-port         3980                       # Cumulative packet size per connected master and slave (bytes)
system.iobus.pkt_size_system.ruby.l1_cntrl3.sequencer.mem-master-port::total         4030                       # Cumulative packet size per connected master and slave (bytes)
system.iobus.pkt_size::total                    16368                       # Cumulative packet size per connected master and slave (bytes)
system.iobus.reqLayer2.occupancy                82500                       # Layer occupancy (ticks)
system.iobus.reqLayer2.utilization                0.0                       # Layer utilization (%)
system.iobus.reqLayer8.occupancy                48495                       # Layer occupancy (ticks)
system.iobus.reqLayer8.utilization                0.0                       # Layer utilization (%)
system.iobus.reqLayer12.occupancy              283000                       # Layer occupancy (ticks)
system.iobus.reqLayer12.utilization               0.0                       # Layer utilization (%)
system.iobus.reqLayer17.occupancy             2389998                       # Layer occupancy (ticks)
system.iobus.reqLayer17.utilization               0.0                       # Layer utilization (%)
system.iobus.reqLayer18.occupancy             2728016                       # Layer occupancy (ticks)
system.iobus.reqLayer18.utilization               0.0                       # Layer utilization (%)
system.iobus.reqLayer19.occupancy             2398500                       # Layer occupancy (ticks)
system.iobus.reqLayer19.utilization               0.0                       # Layer utilization (%)
system.iobus.reqLayer20.occupancy             2414997                       # Layer occupancy (ticks)
system.iobus.reqLayer20.utilization               0.0                       # Layer utilization (%)
system.iobus.respLayer0.occupancy               13498                       # Layer occupancy (ticks)
system.iobus.respLayer0.utilization               0.0                       # Layer utilization (%)
system.iobus.respLayer2.occupancy             1522500                       # Layer occupancy (ticks)
system.iobus.respLayer2.utilization               0.0                       # Layer utilization (%)
system.iobus.respLayer4.occupancy             1706500                       # Layer occupancy (ticks)
system.iobus.respLayer4.utilization               0.0                       # Layer utilization (%)
system.iobus.respLayer6.occupancy             1718500                       # Layer occupancy (ticks)
system.iobus.respLayer6.utilization               0.0                       # Layer utilization (%)
system.iobus.respLayer8.occupancy             1520500                       # Layer occupancy (ticks)
system.iobus.respLayer8.utilization               0.0                       # Layer utilization (%)
system.pc.south_bridge.ide.disks.dma_read_full_pages            1                       # Number of full page size DMA reads (not PRD).
system.pc.south_bridge.ide.disks.dma_read_bytes         4096                       # Number of bytes transfered via DMA reads (not PRD).
system.pc.south_bridge.ide.disks.dma_read_txs            1                       # Number of DMA read transactions (not PRD).
system.pc.south_bridge.ide.disks.dma_write_full_pages           24                       # Number of full page size DMA writes.
system.pc.south_bridge.ide.disks.dma_write_bytes        98304                       # Number of bytes transfered via DMA writes.
system.pc.south_bridge.ide.disks.dma_write_txs           24                       # Number of DMA write transactions.
system.ruby.clk_domain.clock                      500                       # Clock period in ticks
system.ruby.delayHist::bucket_size                  8                       # delay histogram for all message
system.ruby.delayHist::max_bucket                  79                       # delay histogram for all message
system.ruby.delayHist::samples               40161969                       # delay histogram for all message
system.ruby.delayHist::mean                  0.491459                       # delay histogram for all message
system.ruby.delayHist::stdev                 2.757808                       # delay histogram for all message
system.ruby.delayHist                    |    38931228     96.94%     96.94% |        3855      0.01%     96.95% |     1226445      3.05%    100.00% |         164      0.00%    100.00% |         261      0.00%    100.00% |           6      0.00%    100.00% |          10      0.00%    100.00% |           0      0.00%    100.00% |           0      0.00%    100.00% |           0      0.00%    100.00% # delay histogram for all message
system.ruby.delayHist::total                 40161969                       # delay histogram for all message
system.ruby.outstanding_req_hist_seqr::bucket_size            1                      
system.ruby.outstanding_req_hist_seqr::max_bucket            9                      
system.ruby.outstanding_req_hist_seqr::samples   3806153059                      
system.ruby.outstanding_req_hist_seqr::mean     1.000000                      
system.ruby.outstanding_req_hist_seqr::gmean     1.000000                      
system.ruby.outstanding_req_hist_seqr::stdev     0.000099                      
[...]
system.ruby.DMA_Controller.WriteRequest::total          832                      
system.ruby.DMA_Controller.Data          |          43    100.00%    100.00% |           0      0.00%    100.00%
system.ruby.DMA_Controller.Data::total             43                      
system.ruby.DMA_Controller.Ack           |         832    100.00%    100.00% |           0      0.00%    100.00%
system.ruby.DMA_Controller.Ack::total             832                      
system.ruby.DMA_Controller.READY.ReadRequest |          43    100.00%    100.00% |           0      0.00%    100.00%
system.ruby.DMA_Controller.READY.ReadRequest::total           43                      
system.ruby.DMA_Controller.READY.WriteRequest |         832    100.00%    100.00% |           0      0.00%    100.00%
system.ruby.DMA_Controller.READY.WriteRequest::total          832                      
system.ruby.DMA_Controller.BUSY_RD.Data  |          43    100.00%    100.00% |           0      0.00%    100.00%
system.ruby.DMA_Controller.BUSY_RD.Data::total           43                      
system.ruby.DMA_Controller.BUSY_WR.Ack   |         832    100.00%    100.00% |           0      0.00%    100.00%
system.ruby.DMA_Controller.BUSY_WR.Ack::total          832                      
system.ruby.L1Cache_Controller.Load      |     1427653      0.39%      0.39% |   360128091     98.69%     99.08% |     1463357      0.40%     99.48% |     1881504      0.52%    100.00%
system.ruby.L1Cache_Controller.Load::total    364900605                      
system.ruby.L1Cache_Controller.Ifetch    |     6729598      0.00%      0.00% |18446744072788596736    100.00%    100.00% |     7363590      0.00%    100.00% |     9623514      0.00%    100.00%
system.ruby.L1Cache_Controller.Ifetch::total 18446744072812314624                      
system.ruby.L1Cache_Controller.Store     |     1046551      1.78%      1.78% |    55211960     93.89%     95.67% |     1113464      1.89%     97.56% |     1435519      2.44%    100.00%
system.ruby.L1Cache_Controller.Store::total     58807494                      
system.ruby.L1Cache_Controller.Inv       |       20811     23.12%     23.12% |       20235     22.48%     45.60% |       23141     25.71%     71.30% |       25833     28.70%    100.00%
system.ruby.L1Cache_Controller.Inv::total        90020                      
system.ruby.L1Cache_Controller.L1_Replacement |       87467      1.09%      1.09% |     7789967     96.67%     97.76% |       86234      1.07%     98.83% |       94435      1.17%    100.00%
system.ruby.L1Cache_Controller.L1_Replacement::total      8058103                      
system.ruby.L1Cache_Controller.Fwd_GETX  |        2392     35.06%     35.06% |         691     10.13%     45.19% |        1714     25.12%     70.31% |        2026     29.69%    100.00%
system.ruby.L1Cache_Controller.Fwd_GETX::total         6823                      
system.ruby.L1Cache_Controller.Fwd_GETS  |        8730     46.65%     46.65% |        1944     10.39%     57.04% |        4795     25.63%     82.67% |        3243     17.33%    100.00%
system.ruby.L1Cache_Controller.Fwd_GETS::total        18712                      
system.ruby.L1Cache_Controller.Data      |          90      4.13%      4.13% |         955     43.83%     47.96% |        1000     45.89%     93.85% |         134      6.15%    100.00%
system.ruby.L1Cache_Controller.Data::total         2179                      
system.ruby.L1Cache_Controller.Data_Exclusive |       15153      0.22%      0.22% |     6949076     99.14%     99.35% |       21800      0.31%     99.66% |       23511      0.34%    100.00%
system.ruby.L1Cache_Controller.Data_Exclusive::total      7009540                      
system.ruby.L1Cache_Controller.DataS_fromL1 |        5560     29.71%     29.71% |        1144      6.11%     35.83% |        3522     18.82%     54.65% |        8486     45.35%    100.00%
system.ruby.L1Cache_Controller.DataS_fromL1::total        18712                      
system.ruby.L1Cache_Controller.Data_all_Acks |       78388      7.30%      7.30% |      845282     78.72%     86.02% |       73959      6.89%     92.91% |       76097      7.09%    100.00%
system.ruby.L1Cache_Controller.Data_all_Acks::total      1073726                      
system.ruby.L1Cache_Controller.Ack       |       17248     53.41%     53.41% |        5561     17.22%     70.62% |        4296     13.30%     83.93% |        5191     16.07%    100.00%
system.ruby.L1Cache_Controller.Ack::total        32296                      
system.ruby.L1Cache_Controller.Ack_all   |        7498     44.96%     44.96% |        2715     16.28%     61.24% |        3159     18.94%     80.19% |        3304     19.81%    100.00%
system.ruby.L1Cache_Controller.Ack_all::total        16676                      
system.ruby.L1Cache_Controller.WB_Ack    |       17803      0.24%      0.24% |     7327906     98.99%     99.23% |       24972      0.34%     99.56% |       32217      0.44%    100.00%
system.ruby.L1Cache_Controller.WB_Ack::total      7402898                      
system.ruby.L1Cache_Controller.NP.Load   |       24885      0.35%      0.35% |     6972059     98.73%     99.08% |       29533      0.42%     99.50% |       35185      0.50%    100.00%
system.ruby.L1Cache_Controller.NP.Load::total      7061662                      
system.ruby.L1Cache_Controller.NP.Ifetch |       54784      9.33%      9.33% |      438387     74.68%     84.01% |       47167      8.04%     92.05% |       46670      7.95%    100.00%
system.ruby.L1Cache_Controller.NP.Ifetch::total       587008                      
system.ruby.L1Cache_Controller.NP.Store  |        7992      1.95%      1.95% |      379521     92.64%     94.59% |        9576      2.34%     96.93% |       12581      3.07%    100.00%
system.ruby.L1Cache_Controller.NP.Store::total       409670                      
system.ruby.L1Cache_Controller.NP.Inv    |        5257     19.07%     19.07% |       10870     39.43%     58.49% |        4627     16.78%     75.28% |        6816     24.72%    100.00%
system.ruby.L1Cache_Controller.NP.Inv::total        27570                      
system.ruby.L1Cache_Controller.I.Load    |        3620     18.28%     18.28% |         640      3.23%     21.51% |        7867     39.72%     61.23% |        7680     38.77%    100.00%
system.ruby.L1Cache_Controller.I.Load::total        19807                      
system.ruby.L1Cache_Controller.I.Ifetch  |        4928     26.51%     26.51% |        5383     28.95%     55.46% |        4101     22.06%     77.52% |        4180     22.48%    100.00%
system.ruby.L1Cache_Controller.I.Ifetch::total        18592                      
system.ruby.L1Cache_Controller.I.Store   |        2982     40.20%     40.20% |         467      6.30%     46.50% |        2036     27.45%     73.95% |        1932     26.05%    100.00%
system.ruby.L1Cache_Controller.I.Store::total         7417                      
system.ruby.L1Cache_Controller.I.L1_Replacement |        6514     28.06%     28.06% |        3442     14.83%     42.89% |        6226     26.82%     69.72% |        7029     30.28%    100.00%
system.ruby.L1Cache_Controller.I.L1_Replacement::total        23211                      
system.ruby.L1Cache_Controller.S.Load    |      212650     24.96%     24.96% |      128227     15.05%     40.02% |      234941     27.58%     67.60% |      275994     32.40%    100.00%
system.ruby.L1Cache_Controller.S.Load::total       851812                      
system.ruby.L1Cache_Controller.S.Ifetch  |     6669886      0.00%      0.00% |18446744072788154368    100.00%    100.00% |     7312322      0.00%    100.00% |     9572664      0.00%    100.00%
system.ruby.L1Cache_Controller.S.Ifetch::total 18446744072811708416                      
system.ruby.L1Cache_Controller.S.Store   |        7408     51.10%     51.10% |        1760     12.14%     63.24% |        2160     14.90%     78.13% |        3170     21.87%    100.00%
system.ruby.L1Cache_Controller.S.Store::total        14498                      
system.ruby.L1Cache_Controller.S.Inv     |       11257     22.62%     22.62% |        8945     17.98%     40.60% |       14554     29.25%     69.85% |       14999     30.15%    100.00%
system.ruby.L1Cache_Controller.S.Inv::total        49755                      
system.ruby.L1Cache_Controller.S.L1_Replacement |       63150      9.99%      9.99% |      458619     72.57%     82.56% |       55036      8.71%     91.27% |       55189      8.73%    100.00%
system.ruby.L1Cache_Controller.S.L1_Replacement::total       631994                      
system.ruby.L1Cache_Controller.E.Load    |      184172      0.09%      0.09% |   203416631     99.65%     99.74% |      247363      0.12%     99.86% |      279186      0.14%    100.00%
system.ruby.L1Cache_Controller.E.Load::total    204127352                      
system.ruby.L1Cache_Controller.E.Store   |        4595      0.55%      0.55% |      821235     97.49%     98.04% |        7190      0.85%     98.89% |        9346      1.11%    100.00%
system.ruby.L1Cache_Controller.E.Store::total       842366                      
system.ruby.L1Cache_Controller.E.Inv     |        1422     32.15%     32.15% |         214      4.84%     36.99% |        1331     30.09%     67.08% |        1456     32.92%    100.00%
system.ruby.L1Cache_Controller.E.Inv::total         4423                      
system.ruby.L1Cache_Controller.E.L1_Replacement |        6604      0.11%      0.11% |     6127131     99.54%     99.65% |       10080      0.16%     99.81% |       11452      0.19%    100.00%
system.ruby.L1Cache_Controller.E.L1_Replacement::total      6155267                      
system.ruby.L1Cache_Controller.E.Fwd_GETX |         987     39.46%     39.46% |          46      1.84%     41.30% |        1100     43.98%     85.29% |         368     14.71%    100.00%
system.ruby.L1Cache_Controller.E.Fwd_GETX::total         2501                      
system.ruby.L1Cache_Controller.E.Fwd_GETS |        1359     27.75%     27.75% |         425      8.68%     36.42% |        2049     41.83%     78.26% |        1065     21.74%    100.00%
system.ruby.L1Cache_Controller.E.Fwd_GETS::total         4898                      
system.ruby.L1Cache_Controller.M.Load    |     1002326      0.66%      0.66% |   149610534     97.89%     98.54% |      943653      0.62%     99.16% |     1283459      0.84%    100.00%
system.ruby.L1Cache_Controller.M.Load::total    152839972                      
system.ruby.L1Cache_Controller.M.Store   |     1023574      1.78%      1.78% |    54008977     93.87%     95.65% |     1092502      1.90%     97.55% |     1408490      2.45%    100.00%
system.ruby.L1Cache_Controller.M.Store::total     57533543                      
system.ruby.L1Cache_Controller.M.Inv     |        2875     34.76%     34.76% |         206      2.49%     37.25% |        2628     31.77%     69.02% |        2562     30.98%    100.00%
system.ruby.L1Cache_Controller.M.Inv::total         8271                      
system.ruby.L1Cache_Controller.M.L1_Replacement |       11199      0.90%      0.90% |     1200775     96.24%     97.14% |       14892      1.19%     98.34% |       20765      1.66%    100.00%
system.ruby.L1Cache_Controller.M.L1_Replacement::total      1247631                      
system.ruby.L1Cache_Controller.M.Fwd_GETX |        1405     32.51%     32.51% |         645     14.92%     47.43% |         614     14.21%     61.64% |        1658     38.36%    100.00%
system.ruby.L1Cache_Controller.M.Fwd_GETX::total         4322                      
system.ruby.L1Cache_Controller.M.Fwd_GETS |        7371     53.36%     53.36% |        1519     11.00%     64.36% |        2746     19.88%     84.23% |        2178     15.77%    100.00%
system.ruby.L1Cache_Controller.M.Fwd_GETS::total        13814                      
system.ruby.L1Cache_Controller.IS.Data_Exclusive |       15153      0.22%      0.22% |     6949076     99.14%     99.35% |       21800      0.31%     99.66% |       23511      0.34%    100.00%
system.ruby.L1Cache_Controller.IS.Data_Exclusive::total      7009540                      
system.ruby.L1Cache_Controller.IS.DataS_fromL1 |        5560     29.71%     29.71% |        1144      6.11%     35.83% |        3522     18.82%     54.65% |        8486     45.35%    100.00%
system.ruby.L1Cache_Controller.IS.DataS_fromL1::total        18712                      
system.ruby.L1Cache_Controller.IS.Data_all_Acks |       67504     10.25%     10.25% |      466249     70.77%     81.02% |       63346      9.62%     90.63% |       61718      9.37%    100.00%
system.ruby.L1Cache_Controller.IS.Data_all_Acks::total       658817                      
system.ruby.L1Cache_Controller.IM.Data   |          90      4.13%      4.13% |         955     43.83%     47.96% |        1000     45.89%     93.85% |         134      6.15%    100.00%
system.ruby.L1Cache_Controller.IM.Data::total         2179                      
system.ruby.L1Cache_Controller.IM.Data_all_Acks |       10884      2.62%      2.62% |      379033     91.35%     93.98% |       10613      2.56%     96.53% |       14379      3.47%    100.00%
system.ruby.L1Cache_Controller.IM.Data_all_Acks::total       414909                      
system.ruby.L1Cache_Controller.IM.Ack    |           0      0.00%      0.00% |           0      0.00%      0.00% |           1     20.00%     20.00% |           4     80.00%    100.00%
system.ruby.L1Cache_Controller.IM.Ack::total            5                      
system.ruby.L1Cache_Controller.SM.Inv    |           0      0.00%      0.00% |           0      0.00%      0.00% |           1    100.00%    100.00% |           0      0.00%    100.00%
system.ruby.L1Cache_Controller.SM.Inv::total            1                      
system.ruby.L1Cache_Controller.SM.Ack    |       17248     53.41%     53.41% |        5561     17.22%     70.64% |        4295     13.30%     83.94% |        5187     16.06%    100.00%
system.ruby.L1Cache_Controller.SM.Ack::total        32291                      
system.ruby.L1Cache_Controller.SM.Ack_all |        7498     44.96%     44.96% |        2715     16.28%     61.24% |        3159     18.94%     80.19% |        3304     19.81%    100.00%
system.ruby.L1Cache_Controller.SM.Ack_all::total        16676                      
system.ruby.L1Cache_Controller.M_I.Ifetch |           0      0.00%      0.00% |           1    100.00%    100.00% |           0      0.00%    100.00% |           0      0.00%    100.00%
system.ruby.L1Cache_Controller.M_I.Ifetch::total            1                      
system.ruby.L1Cache_Controller.M_I.WB_Ack |       17803      0.24%      0.24% |     7327906     98.99%     99.23% |       24972      0.34%     99.56% |       32217      0.44%    100.00%
system.ruby.L1Cache_Controller.M_I.WB_Ack::total      7402898                      
system.ruby.L2Cache_Controller.L1_GET_INSTR       605603      0.00%      0.00%
system.ruby.L2Cache_Controller.L1_GETS        7081545      0.00%      0.00%
system.ruby.L2Cache_Controller.L1_GETX         417090      0.00%      0.00%
system.ruby.L2Cache_Controller.L1_UPGRADE        14498      0.00%      0.00%
system.ruby.L2Cache_Controller.L1_PUTX        7402898      0.00%      0.00%
system.ruby.L2Cache_Controller.L2_Replacement       521016      0.00%      0.00%
system.ruby.L2Cache_Controller.L2_Replacement_clean       455854      0.00%      0.00%
system.ruby.L2Cache_Controller.Mem_Data        984490      0.00%      0.00%
system.ruby.L2Cache_Controller.Mem_Ack         976875      0.00%      0.00%
system.ruby.L2Cache_Controller.WB_Data          22085      0.00%      0.00%
system.ruby.L2Cache_Controller.WB_Data_clean         4898      0.00%      0.00%
system.ruby.L2Cache_Controller.Ack              21825      0.00%      0.00%
system.ruby.L2Cache_Controller.Ack_all          25449      0.00%      0.00%
system.ruby.L2Cache_Controller.Unblock          18712      0.00%      0.00%
system.ruby.L2Cache_Controller.Exclusive_Unblock      7441125      0.00%      0.00%
system.ruby.L2Cache_Controller.MEM_Inv             10      0.00%      0.00%
system.ruby.L2Cache_Controller.NP.L1_GET_INSTR        20262      0.00%      0.00%
system.ruby.L2Cache_Controller.NP.L1_GETS       728800      0.00%      0.00%
system.ruby.L2Cache_Controller.NP.L1_GETX       235428      0.00%      0.00%
system.ruby.L2Cache_Controller.SS.L1_GET_INSTR       585324      0.00%      0.00%
system.ruby.L2Cache_Controller.SS.L1_GETS        53211      0.00%      0.00%
system.ruby.L2Cache_Controller.SS.L1_GETX         2183      0.00%      0.00%
system.ruby.L2Cache_Controller.SS.L1_UPGRADE        14497      0.00%      0.00%
system.ruby.L2Cache_Controller.SS.L2_Replacement          430      0.00%      0.00%
system.ruby.L2Cache_Controller.SS.L2_Replacement_clean        20596      0.00%      0.00%
system.ruby.L2Cache_Controller.M.L1_GET_INSTR           13      0.00%      0.00%
system.ruby.L2Cache_Controller.M.L1_GETS      6280743      0.00%      0.00%
system.ruby.L2Cache_Controller.M.L1_GETX       172654      0.00%      0.00%
system.ruby.L2Cache_Controller.M.L2_Replacement       519538      0.00%      0.00%
system.ruby.L2Cache_Controller.M.L2_Replacement_clean       423617      0.00%      0.00%
system.ruby.L2Cache_Controller.MT.L1_GETS        18712      0.00%      0.00%
system.ruby.L2Cache_Controller.MT.L1_GETX         6823      0.00%      0.00%
system.ruby.L2Cache_Controller.MT.L1_PUTX      7402898      0.00%      0.00%
system.ruby.L2Cache_Controller.MT.L2_Replacement         1048      0.00%      0.00%
system.ruby.L2Cache_Controller.MT.L2_Replacement_clean        11641      0.00%      0.00%
system.ruby.L2Cache_Controller.MT.MEM_Inv            5      0.00%      0.00%
system.ruby.L2Cache_Controller.M_I.L1_GET_INSTR            3      0.00%      0.00%
system.ruby.L2Cache_Controller.M_I.L1_GETS            2      0.00%      0.00%
system.ruby.L2Cache_Controller.M_I.L1_GETX            1      0.00%      0.00%
system.ruby.L2Cache_Controller.M_I.Mem_Ack       976875      0.00%      0.00%
system.ruby.L2Cache_Controller.MT_I.WB_Data          875      0.00%      0.00%
system.ruby.L2Cache_Controller.MT_I.Ack_all          178      0.00%      0.00%
system.ruby.L2Cache_Controller.MT_I.MEM_Inv            5      0.00%      0.00%
system.ruby.L2Cache_Controller.MCT_I.WB_Data         7396      0.00%      0.00%
system.ruby.L2Cache_Controller.MCT_I.Ack_all         4245      0.00%      0.00%
system.ruby.L2Cache_Controller.I_I.Ack          21151      0.00%      0.00%
system.ruby.L2Cache_Controller.I_I.Ack_all        20596      0.00%      0.00%
system.ruby.L2Cache_Controller.S_I.Ack            674      0.00%      0.00%
system.ruby.L2Cache_Controller.S_I.Ack_all          430      0.00%      0.00%
system.ruby.L2Cache_Controller.ISS.L1_GETS            3      0.00%      0.00%
system.ruby.L2Cache_Controller.ISS.Mem_Data       728797      0.00%      0.00%
system.ruby.L2Cache_Controller.IS.L1_GET_INSTR            1      0.00%      0.00%
system.ruby.L2Cache_Controller.IS.Mem_Data        20265      0.00%      0.00%
system.ruby.L2Cache_Controller.IM.Mem_Data       235428      0.00%      0.00%
system.ruby.L2Cache_Controller.SS_MB.L1_GETS           60      0.00%      0.00%
system.ruby.L2Cache_Controller.SS_MB.L1_GETX            1      0.00%      0.00%
system.ruby.L2Cache_Controller.SS_MB.L1_UPGRADE            1      0.00%      0.00%
system.ruby.L2Cache_Controller.SS_MB.Exclusive_Unblock        16680      0.00%      0.00%
system.ruby.L2Cache_Controller.MT_MB.L1_GETS           13      0.00%      0.00%
system.ruby.L2Cache_Controller.MT_MB.Exclusive_Unblock      7424445      0.00%      0.00%
system.ruby.L2Cache_Controller.MT_IIB.L1_GETS            1      0.00%      0.00%
system.ruby.L2Cache_Controller.MT_IIB.Unblock        18712      0.00%      0.00%
system.ruby.L2Cache_Controller.MT_IB.WB_Data        13814      0.00%      0.00%
system.ruby.L2Cache_Controller.MT_IB.WB_Data_clean         4898      0.00%      0.00%

---------- End Simulation Statistics   ----------
