
---------- Begin Simulation Statistics ----------
sim_seconds                                  0.462958                       # Number of seconds simulated
sim_ticks                                462957661500                       # Number of ticks simulated
final_tick                               52778827968001                       # Number of ticks from beginning of simulation (restored from checkpoints and never reset)
sim_freq                                 1000000000000                       # Frequency of simulated ticks
host_inst_rate                                 136278                       # Simulator instruction rate (inst/s)
host_op_rate                                   245957                       # Simulator op (including micro ops) rate (op/s)
host_tick_rate                              234591086                       # Simulator tick rate (ticks/s)
host_mem_usage                                1829900                       # Number of bytes of host memory used
host_seconds                                  1973.47                       # Real time elapsed on the host
sim_insts                                   268941011                       # Number of instructions simulated
sim_ops                                     485388674                       # Number of ops (including micro ops) simulated
system.voltage_domain.voltage                       1                       # Voltage in Volts
system.clk_domain.clock                          1000                       # Clock period in ticks
system.mem_ctrls.bytes_read::ruby.dir_cntrl0       495552                       # Number of bytes read from this memory
system.mem_ctrls.bytes_read::total             495552                       # Number of bytes read from this memory
system.mem_ctrls.bytes_written::ruby.dir_cntrl0       244544                       # Number of bytes written to this memory
system.mem_ctrls.bytes_written::total          244544                       # Number of bytes written to this memory
system.mem_ctrls.num_reads::ruby.dir_cntrl0         7743                       # Number of read requests responded to by this memory
system.mem_ctrls.num_reads::total                7743                       # Number of read requests responded to by this memory
system.mem_ctrls.num_writes::ruby.dir_cntrl0         3821                       # Number of write requests responded to by this memory
system.mem_ctrls.num_writes::total               3821                       # Number of write requests responded to by this memory
system.mem_ctrls.bw_read::ruby.dir_cntrl0      1070405                       # Total read bandwidth from this memory (bytes/s)
system.mem_ctrls.bw_read::total               1070405                       # Total read bandwidth from this memory (bytes/s)
system.mem_ctrls.bw_write::ruby.dir_cntrl0       528221                       # Write bandwidth from this memory (bytes/s)
system.mem_ctrls.bw_write::total               528221                       # Write bandwidth from this memory (bytes/s)
system.mem_ctrls.bw_total::ruby.dir_cntrl0      1598626                       # Total bandwidth to/from this memory (bytes/s)
system.mem_ctrls.bw_total::total              1598626                       # Total bandwidth to/from this memory (bytes/s)
system.mem_ctrls.readReqs                        7743                       # Number of read requests accepted
system.mem_ctrls.writeReqs                       3821                       # Number of write requests accepted
system.mem_ctrls.readBursts                      7743                       # Number of DRAM read bursts, including those serviced by the write queue
system.mem_ctrls.writeBursts                     3821                       # Number of DRAM write bursts, including those merged in the write queue
system.mem_ctrls.bytesReadDRAM                 490816                       # Total number of bytes read from DRAM
system.mem_ctrls.bytesReadWrQ                    4736                       # Total number of bytes read from write queue
system.mem_ctrls.bytesWritten                  244352                       # Total number of bytes written to DRAM
system.mem_ctrls.bytesReadSys                  495552                       # Total read bytes from the system interface side
system.mem_ctrls.bytesWrittenSys               244544                       # Total written bytes from the system interface side
system.mem_ctrls.servicedByWrQ                     74                       # Number of DRAM read bursts serviced by the write queue
system.mem_ctrls.mergedWrBursts                     2                       # Number of DRAM write bursts merged with an existing one
system.mem_ctrls.neitherReadNorWriteReqs            0                       # Number of requests that are neither read nor write
system.mem_ctrls.perBankRdBursts::0               626                       # Per bank write bursts
system.mem_ctrls.perBankRdBursts::1               529                       # Per bank write bursts
system.mem_ctrls.perBankRdBursts::2               501                       # Per bank write bursts
system.mem_ctrls.perBankRdBursts::3               388                       # Per bank write bursts
system.mem_ctrls.perBankRdBursts::4               665                       # Per bank write bursts
system.mem_ctrls.perBankRdBursts::5               347                       # Per bank write bursts
system.mem_ctrls.perBankRdBursts::6               430                       # Per bank write bursts
system.mem_ctrls.perBankRdBursts::7               532                       # Per bank write bursts
system.mem_ctrls.perBankRdBursts::8               466                       # Per bank write bursts
system.mem_ctrls.perBankRdBursts::9               547                       # Per bank write bursts
system.mem_ctrls.perBankRdBursts::10              401                       # Per bank write bursts
system.mem_ctrls.perBankRdBursts::11              417                       # Per bank write bursts
system.mem_ctrls.perBankRdBursts::12              361                       # Per bank write bursts
system.mem_ctrls.perBankRdBursts::13              532                       # Per bank write bursts
system.mem_ctrls.perBankRdBursts::14              605                       # Per bank write bursts
system.mem_ctrls.perBankRdBursts::15              322                       # Per bank write bursts
system.mem_ctrls.perBankWrBursts::0               288                       # Per bank write bursts
system.mem_ctrls.perBankWrBursts::1               385                       # Per bank write bursts
system.mem_ctrls.perBankWrBursts::2               362                       # Per bank write bursts
system.mem_ctrls.perBankWrBursts::3               150                       # Per bank write bursts
system.mem_ctrls.perBankWrBursts::4               393                       # Per bank write bursts
system.mem_ctrls.perBankWrBursts::5               348                       # Per bank write bursts
system.mem_ctrls.perBankWrBursts::6               142                       # Per bank write bursts
system.mem_ctrls.perBankWrBursts::7               417                       # Per bank write bursts
system.mem_ctrls.perBankWrBursts::8               254                       # Per bank write bursts
system.mem_ctrls.perBankWrBursts::9               224                       # Per bank write bursts
system.mem_ctrls.perBankWrBursts::10              136                       # Per bank write bursts
system.mem_ctrls.perBankWrBursts::11               72                       # Per bank write bursts
system.mem_ctrls.perBankWrBursts::12               82                       # Per bank write bursts
system.mem_ctrls.perBankWrBursts::13              142                       # Per bank write bursts
system.mem_ctrls.perBankWrBursts::14              257                       # Per bank write bursts
system.mem_ctrls.perBankWrBursts::15              166                       # Per bank write bursts
system.mem_ctrls.numRdRetry                         0                       # Number of times read queue was full causing retry
system.mem_ctrls.numWrRetry                         0                       # Number of times write queue was full causing retry
system.mem_ctrls.totGap                  462957590500                       # Total gap between requests
system.mem_ctrls.readPktSize::0                     0                       # Read request sizes (log2)
system.mem_ctrls.readPktSize::1                     0                       # Read request sizes (log2)
system.mem_ctrls.readPktSize::2                     0                       # Read request sizes (log2)
system.mem_ctrls.readPktSize::3                     0                       # Read request sizes (log2)
system.mem_ctrls.readPktSize::4                     0                       # Read request sizes (log2)
system.mem_ctrls.readPktSize::5                     0                       # Read request sizes (log2)
system.mem_ctrls.readPktSize::6                  7743                       # Read request sizes (log2)
system.mem_ctrls.writePktSize::0                    0                       # Write request sizes (log2)
system.mem_ctrls.writePktSize::1                    0                       # Write request sizes (log2)
system.mem_ctrls.writePktSize::2                    0                       # Write request sizes (log2)
system.mem_ctrls.writePktSize::3                    0                       # Write request sizes (log2)
system.mem_ctrls.writePktSize::4                    0                       # Write request sizes (log2)
system.mem_ctrls.writePktSize::5                    0                       # Write request sizes (log2)
system.mem_ctrls.writePktSize::6                 3821                       # Write request sizes (log2)
system.mem_ctrls.rdQLenPdf::0                    7447                       # What read queue length does an incoming req see
system.mem_ctrls.rdQLenPdf::1                     222                       # What read queue length does an incoming req see
system.mem_ctrls.rdQLenPdf::2                       0                       # What read queue length does an incoming req see
system.mem_ctrls.rdQLenPdf::3                       0                       # What read queue length does an incoming req see
system.mem_ctrls.rdQLenPdf::4                       0                       # What read queue length does an incoming req see
system.mem_ctrls.rdQLenPdf::5                       0                       # What read queue length does an incoming req see
system.mem_ctrls.rdQLenPdf::6                       0                       # What read queue length does an incoming req see
system.mem_ctrls.rdQLenPdf::7                       0                       # What read queue length does an incoming req see
system.mem_ctrls.rdQLenPdf::8                       0                       # What read queue length does an incoming req see
system.mem_ctrls.rdQLenPdf::9                       0                       # What read queue length does an incoming req see
system.mem_ctrls.rdQLenPdf::10                      0                       # What read queue length does an incoming req see
system.mem_ctrls.rdQLenPdf::11                      0                       # What read queue length does an incoming req see
system.mem_ctrls.rdQLenPdf::12                      0                       # What read queue length does an incoming req see
system.mem_ctrls.rdQLenPdf::13                      0                       # What read queue length does an incoming req see
system.mem_ctrls.rdQLenPdf::14                      0                       # What read queue length does an incoming req see
system.mem_ctrls.rdQLenPdf::15                      0                       # What read queue length does an incoming req see
system.mem_ctrls.rdQLenPdf::16                      0                       # What read queue length does an incoming req see
system.mem_ctrls.rdQLenPdf::17                      0                       # What read queue length does an incoming req see
system.mem_ctrls.rdQLenPdf::18                      0                       # What read queue length does an incoming req see
system.mem_ctrls.rdQLenPdf::19                      0                       # What read queue length does an incoming req see
system.mem_ctrls.rdQLenPdf::20                      0                       # What read queue length does an incoming req see
system.mem_ctrls.rdQLenPdf::21                      0                       # What read queue length does an incoming req see
system.mem_ctrls.rdQLenPdf::22                      0                       # What read queue length does an incoming req see
system.mem_ctrls.rdQLenPdf::23                      0                       # What read queue length does an incoming req see
system.mem_ctrls.rdQLenPdf::24                      0                       # What read queue length does an incoming req see
system.mem_ctrls.rdQLenPdf::25                      0                       # What read queue length does an incoming req see
system.mem_ctrls.rdQLenPdf::26                      0                       # What read queue length does an incoming req see
system.mem_ctrls.rdQLenPdf::27                      0                       # What read queue length does an incoming req see
system.mem_ctrls.rdQLenPdf::28                      0                       # What read queue length does an incoming req see
system.mem_ctrls.rdQLenPdf::29                      0                       # What read queue length does an incoming req see
system.mem_ctrls.rdQLenPdf::30                      0                       # What read queue length does an incoming req see
system.mem_ctrls.rdQLenPdf::31                      0                       # What read queue length does an incoming req see
system.mem_ctrls.wrQLenPdf::0                       0                       # What write queue length does an incoming req see
system.mem_ctrls.wrQLenPdf::1                       0                       # What write queue length does an incoming req see
system.mem_ctrls.wrQLenPdf::2                       0                       # What write queue length does an incoming req see
system.mem_ctrls.wrQLenPdf::3                       0                       # What write queue length does an incoming req see
system.mem_ctrls.wrQLenPdf::4                       0                       # What write queue length does an incoming req see
system.mem_ctrls.wrQLenPdf::5                       0                       # What write queue length does an incoming req see
system.mem_ctrls.wrQLenPdf::6                       0                       # What write queue length does an incoming req see
system.mem_ctrls.wrQLenPdf::7                       0                       # What write queue length does an incoming req see
system.mem_ctrls.wrQLenPdf::8                       0                       # What write queue length does an incoming req see
system.mem_ctrls.wrQLenPdf::9                       0                       # What write queue length does an incoming req see
system.mem_ctrls.wrQLenPdf::10                      0                       # What write queue length does an incoming req see
system.mem_ctrls.wrQLenPdf::11                      0                       # What write queue length does an incoming req see
system.mem_ctrls.wrQLenPdf::12                      0                       # What write queue length does an incoming req see
system.mem_ctrls.wrQLenPdf::13                      0                       # What write queue length does an incoming req see
system.mem_ctrls.wrQLenPdf::14                      0                       # What write queue length does an incoming req see
system.mem_ctrls.wrQLenPdf::15                    122                       # What write queue length does an incoming req see
system.mem_ctrls.wrQLenPdf::16                    167                       # What write queue length does an incoming req see
system.mem_ctrls.wrQLenPdf::17                    205                       # What write queue length does an incoming req see
system.mem_ctrls.wrQLenPdf::18                    245                       # What write queue length does an incoming req see
system.mem_ctrls.wrQLenPdf::19                    234                       # What write queue length does an incoming req see
system.mem_ctrls.wrQLenPdf::20                    256                       # What write queue length does an incoming req see
system.mem_ctrls.wrQLenPdf::21                    249                       # What write queue length does an incoming req see
system.mem_ctrls.wrQLenPdf::22                    216                       # What write queue length does an incoming req see
system.mem_ctrls.wrQLenPdf::23                    254                       # What write queue length does an incoming req see
system.mem_ctrls.wrQLenPdf::24                    241                       # What write queue length does an incoming req see
system.mem_ctrls.wrQLenPdf::25                    215                       # What write queue length does an incoming req see
system.mem_ctrls.wrQLenPdf::26                    233                       # What write queue length does an incoming req see
system.mem_ctrls.wrQLenPdf::27                    207                       # What write queue length does an incoming req see
system.mem_ctrls.wrQLenPdf::28                    201                       # What write queue length does an incoming req see
system.mem_ctrls.wrQLenPdf::29                    191                       # What write queue length does an incoming req see
system.mem_ctrls.wrQLenPdf::30                    193                       # What write queue length does an incoming req see
system.mem_ctrls.wrQLenPdf::31                    189                       # What write queue length does an incoming req see
system.mem_ctrls.wrQLenPdf::32                    185                       # What write queue length does an incoming req see
system.mem_ctrls.wrQLenPdf::33                      4                       # What write queue length does an incoming req see
system.mem_ctrls.wrQLenPdf::34                      2                       # What write queue length does an incoming req see
system.mem_ctrls.wrQLenPdf::35                      2                       # What write queue length does an incoming req see
system.mem_ctrls.wrQLenPdf::36                      1                       # What write queue length does an incoming req see
system.mem_ctrls.wrQLenPdf::37                      2                       # What write queue length does an incoming req see
system.mem_ctrls.wrQLenPdf::38                      1                       # What write queue length does an incoming req see
system.mem_ctrls.wrQLenPdf::39                      1                       # What write queue length does an incoming req see
system.mem_ctrls.wrQLenPdf::40                      1                       # What write queue length does an incoming req see
system.mem_ctrls.wrQLenPdf::41                      1                       # What write queue length does an incoming req see
system.mem_ctrls.wrQLenPdf::42                      1                       # What write queue length does an incoming req see
system.mem_ctrls.wrQLenPdf::43                      0                       # What write queue length does an incoming req see
system.mem_ctrls.wrQLenPdf::44                      0                       # What write queue length does an incoming req see
system.mem_ctrls.wrQLenPdf::45                      0                       # What write queue length does an incoming req see
system.mem_ctrls.wrQLenPdf::46                      0                       # What write queue length does an incoming req see
system.mem_ctrls.wrQLenPdf::47                      0                       # What write queue length does an incoming req see
system.mem_ctrls.wrQLenPdf::48                      0                       # What write queue length does an incoming req see
system.mem_ctrls.wrQLenPdf::49                      0                       # What write queue length does an incoming req see
system.mem_ctrls.wrQLenPdf::50                      0                       # What write queue length does an incoming req see
system.mem_ctrls.wrQLenPdf::51                      0                       # What write queue length does an incoming req see
system.mem_ctrls.wrQLenPdf::52                      0                       # What write queue length does an incoming req see
system.mem_ctrls.wrQLenPdf::53                      0                       # What write queue length does an incoming req see
system.mem_ctrls.wrQLenPdf::54                      0                       # What write queue length does an incoming req see
system.mem_ctrls.wrQLenPdf::55                      0                       # What write queue length does an incoming req see
system.mem_ctrls.wrQLenPdf::56                      0                       # What write queue length does an incoming req see
system.mem_ctrls.wrQLenPdf::57                      0                       # What write queue length does an incoming req see
system.mem_ctrls.wrQLenPdf::58                      0                       # What write queue length does an incoming req see
system.mem_ctrls.wrQLenPdf::59                      0                       # What write queue length does an incoming req see
system.mem_ctrls.wrQLenPdf::60                      0                       # What write queue length does an incoming req see
system.mem_ctrls.wrQLenPdf::61                      0                       # What write queue length does an incoming req see
system.mem_ctrls.wrQLenPdf::62                      0                       # What write queue length does an incoming req see
system.mem_ctrls.wrQLenPdf::63                      0                       # What write queue length does an incoming req see
system.mem_ctrls.bytesPerActivate::samples         3967                       # Bytes accessed per row activation
system.mem_ctrls.bytesPerActivate::mean    185.401563                       # Bytes accessed per row activation
system.mem_ctrls.bytesPerActivate::gmean   114.709550                       # Bytes accessed per row activation
system.mem_ctrls.bytesPerActivate::stdev   253.821964                       # Bytes accessed per row activation
system.mem_ctrls.bytesPerActivate::0-127         2169     54.68%     54.68% # Bytes accessed per row activation
system.mem_ctrls.bytesPerActivate::128-255         1152     29.04%     83.72% # Bytes accessed per row activation
system.mem_ctrls.bytesPerActivate::256-383          161      4.06%     87.77% # Bytes accessed per row activation
system.mem_ctrls.bytesPerActivate::384-511           90      2.27%     90.04% # Bytes accessed per row activation
system.mem_ctrls.bytesPerActivate::512-639           60      1.51%     91.56% # Bytes accessed per row activation
system.mem_ctrls.bytesPerActivate::640-767           34      0.86%     92.41% # Bytes accessed per row activation
system.mem_ctrls.bytesPerActivate::768-895           29      0.73%     93.14% # Bytes accessed per row activation
system.mem_ctrls.bytesPerActivate::896-1023           26      0.66%     93.80% # Bytes accessed per row activation
system.mem_ctrls.bytesPerActivate::1024-1151          246      6.20%    100.00% # Bytes accessed per row activation
system.mem_ctrls.bytesPerActivate::total         3967                       # Bytes accessed per row activation
system.mem_ctrls.rdPerTurnAround::samples          184                       # Reads before turning the bus around for writes
system.mem_ctrls.rdPerTurnAround::mean      42.233696                       # Reads before turning the bus around for writes
system.mem_ctrls.rdPerTurnAround::stdev     95.827855                       # Reads before turning the bus around for writes
system.mem_ctrls.rdPerTurnAround::0-31            139     75.54%     75.54% # Reads before turning the bus around for writes
system.mem_ctrls.rdPerTurnAround::32-63            11      5.98%     81.52% # Reads before turning the bus around for writes
system.mem_ctrls.rdPerTurnAround::64-95             8      4.35%     85.87% # Reads before turning the bus around for writes
system.mem_ctrls.rdPerTurnAround::96-127            1      0.54%     86.41% # Reads before turning the bus around for writes
system.mem_ctrls.rdPerTurnAround::128-159            6      3.26%     89.67% # Reads before turning the bus around for writes
system.mem_ctrls.rdPerTurnAround::160-191            4      2.17%     91.85% # Reads before turning the bus around for writes
system.mem_ctrls.rdPerTurnAround::192-223            7      3.80%     95.65% # Reads before turning the bus around for writes
system.mem_ctrls.rdPerTurnAround::224-255            1      0.54%     96.20% # Reads before turning the bus around for writes
system.mem_ctrls.rdPerTurnAround::256-287            1      0.54%     96.74% # Reads before turning the bus around for writes
system.mem_ctrls.rdPerTurnAround::288-319            1      0.54%     97.28% # Reads before turning the bus around for writes
system.mem_ctrls.rdPerTurnAround::320-351            1      0.54%     97.83% # Reads before turning the bus around for writes
system.mem_ctrls.rdPerTurnAround::416-447            2      1.09%     98.91% # Reads before turning the bus around for writes
system.mem_ctrls.rdPerTurnAround::512-543            1      0.54%     99.46% # Reads before turning the bus around for writes
system.mem_ctrls.rdPerTurnAround::608-639            1      0.54%    100.00% # Reads before turning the bus around for writes
system.mem_ctrls.rdPerTurnAround::total           184                       # Reads before turning the bus around for writes
system.mem_ctrls.wrPerTurnAround::samples          184                       # Writes before turning the bus around for reads
system.mem_ctrls.wrPerTurnAround::mean      20.750000                       # Writes before turning the bus around for reads
system.mem_ctrls.wrPerTurnAround::gmean     20.402069                       # Writes before turning the bus around for reads
system.mem_ctrls.wrPerTurnAround::stdev      3.781245                       # Writes before turning the bus around for reads
system.mem_ctrls.wrPerTurnAround::16               54     29.35%     29.35% # Writes before turning the bus around for reads
system.mem_ctrls.wrPerTurnAround::17                4      2.17%     31.52% # Writes before turning the bus around for reads
system.mem_ctrls.wrPerTurnAround::18                8      4.35%     35.87% # Writes before turning the bus around for reads
system.mem_ctrls.wrPerTurnAround::19                2      1.09%     36.96% # Writes before turning the bus around for reads
system.mem_ctrls.wrPerTurnAround::21               35     19.02%     55.98% # Writes before turning the bus around for reads
system.mem_ctrls.wrPerTurnAround::22               16      8.70%     64.67% # Writes before turning the bus around for reads
system.mem_ctrls.wrPerTurnAround::23                2      1.09%     65.76% # Writes before turning the bus around for reads
system.mem_ctrls.wrPerTurnAround::24               38     20.65%     86.41% # Writes before turning the bus around for reads
system.mem_ctrls.wrPerTurnAround::25               12      6.52%     92.93% # Writes before turning the bus around for reads
system.mem_ctrls.wrPerTurnAround::26                2      1.09%     94.02% # Writes before turning the bus around for reads
system.mem_ctrls.wrPerTurnAround::27                1      0.54%     94.57% # Writes before turning the bus around for reads
system.mem_ctrls.wrPerTurnAround::28               10      5.43%    100.00% # Writes before turning the bus around for reads
system.mem_ctrls.wrPerTurnAround::total           184                       # Writes before turning the bus around for reads
system.mem_ctrls.totQLat                     86245749                       # Total ticks spent queuing
system.mem_ctrls.totMemAccLat               230039499                       # Total ticks spent from burst creation until serviced by the DRAM
system.mem_ctrls.totBusLat                   38345000                       # Total ticks spent in databus transfers
system.mem_ctrls.avgQLat                     11246.02                       # Average queueing delay per DRAM burst
system.mem_ctrls.avgBusLat                    5000.00                       # Average bus latency per DRAM burst
system.mem_ctrls.avgMemAccLat                29996.02                       # Average memory access latency per DRAM burst
system.mem_ctrls.avgRdBW                         1.06                       # Average DRAM read bandwidth in MiByte/s
system.mem_ctrls.avgWrBW                         0.53                       # Average achieved write bandwidth in MiByte/s
system.mem_ctrls.avgRdBWSys                      1.07                       # Average system read bandwidth in MiByte/s
system.mem_ctrls.avgWrBWSys                      0.53                       # Average system write bandwidth in MiByte/s
system.mem_ctrls.peakBW                      12800.00                       # Theoretical peak bandwidth in MiByte/s
system.mem_ctrls.busUtil                         0.01                       # Data bus utilization in percentage
system.mem_ctrls.busUtilRead                     0.01                       # Data bus utilization in percentage for reads
system.mem_ctrls.busUtilWrite                    0.00                       # Data bus utilization in percentage for writes
system.mem_ctrls.avgRdQLen                       1.00                       # Average read queue length when enqueuing
system.mem_ctrls.avgWrQLen                      22.35                       # Average write queue length when enqueuing
system.mem_ctrls.readRowHits                     4452                       # Number of row buffer hits during reads
system.mem_ctrls.writeRowHits                    3070                       # Number of row buffer hits during writes
system.mem_ctrls.readRowHitRate                 58.05                       # Row buffer hit rate for reads
system.mem_ctrls.writeRowHitRate                80.39                       # Row buffer hit rate for writes
system.mem_ctrls.avgGap                   40034381.75                       # Average gap between requests
system.mem_ctrls.pageHitRate                    65.48                       # Row buffer hit rate, read and write combined
system.mem_ctrls_0.actEnergy                 31185000                       # Energy for activate commands per rank (pJ)
system.mem_ctrls_0.preEnergy                 17015625                       # Energy for precharge commands per rank (pJ)
system.mem_ctrls_0.readEnergy                93865200                       # Energy for read commands per rank (pJ)
system.mem_ctrls_0.writeEnergy               16180560                       # Energy for write commands per rank (pJ)
system.mem_ctrls_0.refreshEnergy          30454098480                       # Energy for refresh commands per rank (pJ)
system.mem_ctrls_0.actBackEnergy          13403349360                       # Energy for active background per rank (pJ)
system.mem_ctrls_0.preBackEnergy         268001237250                       # Energy for precharge background per rank (pJ)
system.mem_ctrls_0.totalEnergy           312016931475                       # Total energy per rank (pJ)
system.mem_ctrls_0.averagePower            669.184736                       # Core power per rank (mW)
system.mem_ctrls_0.memoryStateTime::IDLE 444639896750                       # Time in different power states
system.mem_ctrls_0.memoryStateTime::REF   15459340000                       # Time in different power states
system.mem_ctrls_0.memoryStateTime::PRE_PDN            0                       # Time in different power states
system.mem_ctrls_0.memoryStateTime::ACT    2863912000                       # Time in different power states
system.mem_ctrls_0.memoryStateTime::ACT_PDN            0                       # Time in different power states
system.mem_ctrls_1.actEnergy                 26580960                       # Energy for activate commands per rank (pJ)
system.mem_ctrls_1.preEnergy                 14503500                       # Energy for precharge commands per rank (pJ)
system.mem_ctrls_1.readEnergy                83210400                       # Energy for read commands per rank (pJ)
system.mem_ctrls_1.writeEnergy                8663760                       # Energy for write commands per rank (pJ)
system.mem_ctrls_1.refreshEnergy          30454098480                       # Energy for refresh commands per rank (pJ)
system.mem_ctrls_1.actBackEnergy          13077285705                       # Energy for active background per rank (pJ)
system.mem_ctrls_1.preBackEnergy         268287258000                       # Energy for precharge background per rank (pJ)
system.mem_ctrls_1.totalEnergy           311951600805                       # Total energy per rank (pJ)
system.mem_ctrls_1.averagePower            669.044621                       # Core power per rank (mW)
system.mem_ctrls_1.memoryStateTime::IDLE 445013979000                       # Time in different power states
system.mem_ctrls_1.memoryStateTime::REF   15459340000                       # Time in different power states
system.mem_ctrls_1.memoryStateTime::PRE_PDN            0                       # Time in different power states
system.mem_ctrls_1.memoryStateTime::ACT    2489319750                       # Time in different power states
system.mem_ctrls_1.memoryStateTime::ACT_PDN            0                       # Time in different power states
system.cpu_voltage_domain.voltage                   1                       # Voltage in Volts
system.cpu_clk_domain.clock                       500                       # Clock period in ticks
system.cpu0.apic_clk_domain.clock                8000                       # Clock period in ticks
system.cpu0.numCycles                       923281124                       # number of cpu cycles simulated
system.cpu0.numWorkItemsStarted                     0                       # number of work items this cpu started
system.cpu0.numWorkItemsCompleted                   0                       # number of work items this cpu completed
system.cpu0.kern.inst.arm                           0                       # number of arm instructions executed
system.cpu0.kern.inst.quiesce                       0                       # number of quiesce instructions executed
system.cpu0.committedInsts                     396111                       # Number of instructions committed
system.cpu0.committedOps                       851703                       # Number of ops (including micro ops) committed
system.cpu0.num_int_alu_accesses               835533                       # Number of integer alu accesses
system.cpu0.num_fp_alu_accesses                    33                       # Number of float alu accesses
system.cpu0.num_func_calls                      25297                       # number of times a function call or return occured
system.cpu0.num_conditional_control_insts        57489                       # number of instructions that are conditional controls
system.cpu0.num_int_insts                      835533                       # number of integer instructions
system.cpu0.num_fp_insts                           33                       # number of float instructions
system.cpu0.num_int_register_reads            1683507                       # number of times the integer registers were read
system.cpu0.num_int_register_writes            687263                       # number of times the integer registers were written
system.cpu0.num_fp_register_reads                  14                       # number of times the floating registers were read
system.cpu0.num_fp_register_writes                 25                       # number of times the floating registers were written
system.cpu0.num_cc_register_reads              465096                       # number of times the CC registers were read
system.cpu0.num_cc_register_writes             258745                       # number of times the CC registers were written
system.cpu0.num_mem_refs                       198598                       # number of memory refs
system.cpu0.num_load_insts                     122647                       # Number of load instructions
system.cpu0.num_store_insts                     75951                       # Number of store instructions
system.cpu0.num_idle_cycles              921460491.418476                       # Number of idle cycles
system.cpu0.num_busy_cycles              1820632.581524                       # Number of busy cycles
system.cpu0.not_idle_fraction                0.001972                       # Percentage of non-idle cycles
system.cpu0.idle_fraction                    0.998028                       # Percentage of idle cycles
system.cpu0.Branches                            90354                       # Number of branches fetched
system.cpu0.op_class::No_OpClass                11736      1.38%      1.38% # Class of executed instruction
system.cpu0.op_class::IntAlu                   636066     74.68%     76.06% # Class of executed instruction
system.cpu0.op_class::IntMult                    1640      0.19%     76.25% # Class of executed instruction
system.cpu0.op_class::IntDiv                     3649      0.43%     76.68% # Class of executed instruction
system.cpu0.op_class::FloatAdd                     17      0.00%     76.68% # Class of executed instruction
system.cpu0.op_class::FloatCmp                      0      0.00%     76.68% # Class of executed instruction
system.cpu0.op_class::FloatCvt                      0      0.00%     76.68% # Class of executed instruction
system.cpu0.op_class::FloatMult                     0      0.00%     76.68% # Class of executed instruction
system.cpu0.op_class::FloatDiv                      0      0.00%     76.68% # Class of executed instruction
system.cpu0.op_class::FloatSqrt                     0      0.00%     76.68% # Class of executed instruction
system.cpu0.op_class::SimdAdd                       0      0.00%     76.68% # Class of executed instruction
system.cpu0.op_class::SimdAddAcc                    0      0.00%     76.68% # Class of executed instruction
system.cpu0.op_class::SimdAlu                       0      0.00%     76.68% # Class of executed instruction
system.cpu0.op_class::SimdCmp                       0      0.00%     76.68% # Class of executed instruction
system.cpu0.op_class::SimdCvt                       0      0.00%     76.68% # Class of executed instruction
system.cpu0.op_class::SimdMisc                      0      0.00%     76.68% # Class of executed instruction
system.cpu0.op_class::SimdMult                      0      0.00%     76.68% # Class of executed instruction
system.cpu0.op_class::SimdMultAcc                   0      0.00%     76.68% # Class of executed instruction
system.cpu0.op_class::SimdShift                     0      0.00%     76.68% # Class of executed instruction
system.cpu0.op_class::SimdShiftAcc                  0      0.00%     76.68% # Class of executed instruction
system.cpu0.op_class::SimdSqrt                      0      0.00%     76.68% # Class of executed instruction
system.cpu0.op_class::SimdFloatAdd                  0      0.00%     76.68% # Class of executed instruction
system.cpu0.op_class::SimdFloatAlu                  0      0.00%     76.68% # Class of executed instruction
system.cpu0.op_class::SimdFloatCmp                  0      0.00%     76.68% # Class of executed instruction
system.cpu0.op_class::SimdFloatCvt                  0      0.00%     76.68% # Class of executed instruction
system.cpu0.op_class::SimdFloatDiv                  0      0.00%     76.68% # Class of executed instruction
system.cpu0.op_class::SimdFloatMisc                 0      0.00%     76.68% # Class of executed instruction
system.cpu0.op_class::SimdFloatMult                 0      0.00%     76.68% # Class of executed instruction
system.cpu0.op_class::SimdFloatMultAcc              0      0.00%     76.68% # Class of executed instruction
system.cpu0.op_class::SimdFloatSqrt                 0      0.00%     76.68% # Class of executed instruction
system.cpu0.op_class::MemRead                  122647     14.40%     91.08% # Class of executed instruction
system.cpu0.op_class::MemWrite                  75951      8.92%    100.00% # Class of executed instruction
system.cpu0.op_class::IprAccess                     0      0.00%    100.00% # Class of executed instruction
system.cpu0.op_class::InstPrefetch                  0      0.00%    100.00% # Class of executed instruction
system.cpu0.op_class::total                    851706                       # Class of executed instruction
system.cpu1.apic_clk_domain.clock                8000                       # Clock period in ticks
system.cpu1.numCycles                       924087159                       # number of cpu cycles simulated
system.cpu1.numWorkItemsStarted                     0                       # number of work items this cpu started
system.cpu1.numWorkItemsCompleted                   0                       # number of work items this cpu completed
system.cpu1.kern.inst.arm                           0                       # number of arm instructions executed
system.cpu1.kern.inst.quiesce                       0                       # number of quiesce instructions executed
system.cpu1.committedInsts                    1055127                       # Number of instructions committed
system.cpu1.committedOps                      2038445                       # Number of ops (including micro ops) committed
system.cpu1.num_int_alu_accesses              2007310                       # Number of integer alu accesses
system.cpu1.num_fp_alu_accesses                  2182                       # Number of float alu accesses
system.cpu1.num_func_calls                      43129                       # number of times a function call or return occured
system.cpu1.num_conditional_control_insts       166060                       # number of instructions that are conditional controls
system.cpu1.num_int_insts                     2007310                       # number of integer instructions
system.cpu1.num_fp_insts                         2182                       # number of float instructions
system.cpu1.num_int_register_reads            4082822                       # number of times the integer registers were read
system.cpu1.num_int_register_writes           1632261                       # number of times the integer registers were written
system.cpu1.num_fp_register_reads                3630                       # number of times the floating registers were read
system.cpu1.num_fp_register_writes               1789                       # number of times the floating registers were written
system.cpu1.num_cc_register_reads             1174221                       # number of times the CC registers were read
system.cpu1.num_cc_register_writes             679294                       # number of times the CC registers were written
system.cpu1.num_mem_refs                       465551                       # number of memory refs
system.cpu1.num_load_insts                     285740                       # Number of load instructions
system.cpu1.num_store_insts                    179811                       # Number of store instructions
system.cpu1.num_idle_cycles              919672040.635123                       # Number of idle cycles
system.cpu1.num_busy_cycles              4415118.364877                       # Number of busy cycles
system.cpu1.not_idle_fraction                0.004778                       # Percentage of non-idle cycles
system.cpu1.idle_fraction                    0.995222                       # Percentage of idle cycles
system.cpu1.Branches                           225564                       # Number of branches fetched
system.cpu1.op_class::No_OpClass                20171      0.99%      0.99% # Class of executed instruction
system.cpu1.op_class::IntAlu                  1542750     75.68%     76.67% # Class of executed instruction
system.cpu1.op_class::IntMult                    2559      0.13%     76.79% # Class of executed instruction
system.cpu1.op_class::IntDiv                     5922      0.29%     77.08% # Class of executed instruction
system.cpu1.op_class::FloatAdd                   1586      0.08%     77.16% # Class of executed instruction
system.cpu1.op_class::FloatCmp                      0      0.00%     77.16% # Class of executed instruction
system.cpu1.op_class::FloatCvt                      0      0.00%     77.16% # Class of executed instruction
system.cpu1.op_class::FloatMult                     0      0.00%     77.16% # Class of executed instruction
system.cpu1.op_class::FloatDiv                      0      0.00%     77.16% # Class of executed instruction
system.cpu1.op_class::FloatSqrt                     0      0.00%     77.16% # Class of executed instruction
system.cpu1.op_class::SimdAdd                       0      0.00%     77.16% # Class of executed instruction
system.cpu1.op_class::SimdAddAcc                    0      0.00%     77.16% # Class of executed instruction
system.cpu1.op_class::SimdAlu                       0      0.00%     77.16% # Class of executed instruction
system.cpu1.op_class::SimdCmp                       0      0.00%     77.16% # Class of executed instruction
system.cpu1.op_class::SimdCvt                       0      0.00%     77.16% # Class of executed instruction
system.cpu1.op_class::SimdMisc                      0      0.00%     77.16% # Class of executed instruction
system.cpu1.op_class::SimdMult                      0      0.00%     77.16% # Class of executed instruction
system.cpu1.op_class::SimdMultAcc                   0      0.00%     77.16% # Class of executed instruction
system.cpu1.op_class::SimdShift                     0      0.00%     77.16% # Class of executed instruction
system.cpu1.op_class::SimdShiftAcc                  0      0.00%     77.16% # Class of executed instruction
system.cpu1.op_class::SimdSqrt                      0      0.00%     77.16% # Class of executed instruction
system.cpu1.op_class::SimdFloatAdd                  0      0.00%     77.16% # Class of executed instruction
system.cpu1.op_class::SimdFloatAlu                  0      0.00%     77.16% # Class of executed instruction
system.cpu1.op_class::SimdFloatCmp                  0      0.00%     77.16% # Class of executed instruction
system.cpu1.op_class::SimdFloatCvt                  0      0.00%     77.16% # Class of executed instruction
system.cpu1.op_class::SimdFloatDiv                  0      0.00%     77.16% # Class of executed instruction
system.cpu1.op_class::SimdFloatMisc                 0      0.00%     77.16% # Class of executed instruction
system.cpu1.op_class::SimdFloatMult                 0      0.00%     77.16% # Class of executed instruction
system.cpu1.op_class::SimdFloatMultAcc              0      0.00%     77.16% # Class of executed instruction
system.cpu1.op_class::SimdFloatSqrt                 0      0.00%     77.16% # Class of executed instruction
system.cpu1.op_class::MemRead                  285740     14.02%     91.18% # Class of executed instruction
system.cpu1.op_class::MemWrite                 179811      8.82%    100.00% # Class of executed instruction
system.cpu1.op_class::IprAccess                     0      0.00%    100.00% # Class of executed instruction
system.cpu1.op_class::InstPrefetch                  0      0.00%    100.00% # Class of executed instruction
system.cpu1.op_class::total                   2038539                       # Class of executed instruction
system.cpu2.apic_clk_domain.clock                8000                       # Clock period in ticks
system.cpu2.numCycles                       925124758                       # number of cpu cycles simulated
system.cpu2.numWorkItemsStarted                     0                       # number of work items this cpu started
system.cpu2.numWorkItemsCompleted                   0                       # number of work items this cpu completed
system.cpu2.kern.inst.arm                           0                       # number of arm instructions executed
system.cpu2.kern.inst.quiesce                       0                       # number of quiesce instructions executed
system.cpu2.committedInsts                     432031                       # Number of instructions committed
system.cpu2.committedOps                       906451                       # Number of ops (including micro ops) committed
system.cpu2.num_int_alu_accesses               887668                       # Number of integer alu accesses
system.cpu2.num_fp_alu_accesses                   154                       # Number of float alu accesses
system.cpu2.num_func_calls                      23935                       # number of times a function call or return occured
system.cpu2.num_conditional_control_insts        67046                       # number of instructions that are conditional controls
system.cpu2.num_int_insts                      887668                       # number of integer instructions
system.cpu2.num_fp_insts                          154                       # number of float instructions
system.cpu2.num_int_register_reads            1798971                       # number of times the integer registers were read
system.cpu2.num_int_register_writes            729811                       # number of times the integer registers were written
system.cpu2.num_fp_register_reads                 285                       # number of times the floating registers were read
system.cpu2.num_fp_register_writes                124                       # number of times the floating registers were written
system.cpu2.num_cc_register_reads              517326                       # number of times the CC registers were read
system.cpu2.num_cc_register_writes             275458                       # number of times the CC registers were written
system.cpu2.num_mem_refs                       214297                       # number of memory refs
system.cpu2.num_load_insts                     131357                       # Number of load instructions
system.cpu2.num_store_insts                     82940                       # Number of store instructions
system.cpu2.num_idle_cycles              923228845.155584                       # Number of idle cycles
system.cpu2.num_busy_cycles              1895912.844416                       # Number of busy cycles
system.cpu2.not_idle_fraction                0.002049                       # Percentage of non-idle cycles
system.cpu2.idle_fraction                    0.997951                       # Percentage of idle cycles
system.cpu2.Branches                            99010                       # Number of branches fetched
system.cpu2.op_class::No_OpClass                14848      1.64%      1.64% # Class of executed instruction
system.cpu2.op_class::IntAlu                   670259     73.94%     75.58% # Class of executed instruction
system.cpu2.op_class::IntMult                    1963      0.22%     75.80% # Class of executed instruction
system.cpu2.op_class::IntDiv                     5025      0.55%     76.35% # Class of executed instruction
system.cpu2.op_class::FloatAdd                     87      0.01%     76.36% # Class of executed instruction
system.cpu2.op_class::FloatCmp                      0      0.00%     76.36% # Class of executed instruction
system.cpu2.op_class::FloatCvt                      0      0.00%     76.36% # Class of executed instruction
system.cpu2.op_class::FloatMult                     0      0.00%     76.36% # Class of executed instruction
system.cpu2.op_class::FloatDiv                      0      0.00%     76.36% # Class of executed instruction
system.cpu2.op_class::FloatSqrt                     0      0.00%     76.36% # Class of executed instruction
system.cpu2.op_class::SimdAdd                       0      0.00%     76.36% # Class of executed instruction
system.cpu2.op_class::SimdAddAcc                    0      0.00%     76.36% # Class of executed instruction
system.cpu2.op_class::SimdAlu                       0      0.00%     76.36% # Class of executed instruction
system.cpu2.op_class::SimdCmp                       0      0.00%     76.36% # Class of executed instruction
system.cpu2.op_class::SimdCvt                       0      0.00%     76.36% # Class of executed instruction
system.cpu2.op_class::SimdMisc                      0      0.00%     76.36% # Class of executed instruction
system.cpu2.op_class::SimdMult                      0      0.00%     76.36% # Class of executed instruction
system.cpu2.op_class::SimdMultAcc                   0      0.00%     76.36% # Class of executed instruction
system.cpu2.op_class::SimdShift                     0      0.00%     76.36% # Class of executed instruction
system.cpu2.op_class::SimdShiftAcc                  0      0.00%     76.36% # Class of executed instruction
system.cpu2.op_class::SimdSqrt                      0      0.00%     76.36% # Class of executed instruction
system.cpu2.op_class::SimdFloatAdd                  0      0.00%     76.36% # Class of executed instruction
system.cpu2.op_class::SimdFloatAlu                  0      0.00%     76.36% # Class of executed instruction
system.cpu2.op_class::SimdFloatCmp                  0      0.00%     76.36% # Class of executed instruction
system.cpu2.op_class::SimdFloatCvt                  0      0.00%     76.36% # Class of executed instruction
system.cpu2.op_class::SimdFloatDiv                  0      0.00%     76.36% # Class of executed instruction
system.cpu2.op_class::SimdFloatMisc                 0      0.00%     76.36% # Class of executed instruction
system.cpu2.op_class::SimdFloatMult                 0      0.00%     76.36% # Class of executed instruction
system.cpu2.op_class::SimdFloatMultAcc              0      0.00%     76.36% # Class of executed instruction
system.cpu2.op_class::SimdFloatSqrt                 0      0.00%     76.36% # Class of executed instruction
system.cpu2.op_class::MemRead                  131357     14.49%     90.85% # Class of executed instruction
system.cpu2.op_class::MemWrite                  82940      9.15%    100.00% # Class of executed instruction
system.cpu2.op_class::IprAccess                     0      0.00%    100.00% # Class of executed instruction
system.cpu2.op_class::InstPrefetch                  0      0.00%    100.00% # Class of executed instruction
system.cpu2.op_class::total                    906479                       # Class of executed instruction
system.cpu3.apic_clk_domain.clock                8000                       # Clock period in ticks
system.cpu3.numCycles                       927825825                       # number of cpu cycles simulated
system.cpu3.numWorkItemsStarted                     0                       # number of work items this cpu started
system.cpu3.numWorkItemsCompleted                   0                       # number of work items this cpu completed
system.cpu3.kern.inst.arm                           0                       # number of arm instructions executed
system.cpu3.kern.inst.quiesce                       0                       # number of quiesce instructions executed
system.cpu3.committedInsts                  265754131                       # Number of instructions committed
system.cpu3.committedOps                    479193706                       # Number of ops (including micro ops) committed
system.cpu3.num_int_alu_accesses            269558794                       # Number of integer alu accesses
system.cpu3.num_fp_alu_accesses             270615189                       # Number of float alu accesses
system.cpu3.num_func_calls                    9864333                       # number of times a function call or return occured
system.cpu3.num_conditional_control_insts     14998414                       # number of instructions that are conditional controls
system.cpu3.num_int_insts                   269558794                       # number of integer instructions
system.cpu3.num_fp_insts                    270615189                       # number of float instructions
system.cpu3.num_int_register_reads          512518974                       # number of times the integer registers were read
system.cpu3.num_int_register_writes         176056954                       # number of times the integer registers were written
system.cpu3.num_fp_register_reads           446719424                       # number of times the floating registers were read
system.cpu3.num_fp_register_writes          249466775                       # number of times the floating registers were written
system.cpu3.num_cc_register_reads           106905539                       # number of times the CC registers were read
system.cpu3.num_cc_register_writes           82969840                       # number of times the CC registers were written
system.cpu3.num_mem_refs                     84024877                       # number of memory refs
system.cpu3.num_load_insts                   62867359                       # Number of load instructions
system.cpu3.num_store_insts                  21157518                       # Number of store instructions
system.cpu3.num_idle_cycles              3858366.831020                       # Number of idle cycles
system.cpu3.num_busy_cycles              923967458.168980                       # Number of busy cycles
system.cpu3.not_idle_fraction                0.995841                       # Percentage of non-idle cycles
system.cpu3.idle_fraction                    0.004159                       # Percentage of idle cycles
system.cpu3.Branches                         27045972                       # Number of branches fetched
system.cpu3.op_class::No_OpClass                11126      0.00%      0.00% # Class of executed instruction
system.cpu3.op_class::IntAlu                244780696     51.08%     51.08% # Class of executed instruction
system.cpu3.op_class::IntMult                    2180      0.00%     51.08% # Class of executed instruction
system.cpu3.op_class::IntDiv                     1771      0.00%     51.08% # Class of executed instruction
system.cpu3.op_class::FloatAdd              150373151     31.38%     82.47% # Class of executed instruction
system.cpu3.op_class::FloatCmp                      0      0.00%     82.47% # Class of executed instruction
system.cpu3.op_class::FloatCvt                      0      0.00%     82.47% # Class of executed instruction
system.cpu3.op_class::FloatMult                     0      0.00%     82.47% # Class of executed instruction
system.cpu3.op_class::FloatDiv                      0      0.00%     82.47% # Class of executed instruction
system.cpu3.op_class::FloatSqrt                     0      0.00%     82.47% # Class of executed instruction
system.cpu3.op_class::SimdAdd                       0      0.00%     82.47% # Class of executed instruction
system.cpu3.op_class::SimdAddAcc                    0      0.00%     82.47% # Class of executed instruction
system.cpu3.op_class::SimdAlu                       0      0.00%     82.47% # Class of executed instruction
system.cpu3.op_class::SimdCmp                       0      0.00%     82.47% # Class of executed instruction
system.cpu3.op_class::SimdCvt                       0      0.00%     82.47% # Class of executed instruction
system.cpu3.op_class::SimdMisc                      0      0.00%     82.47% # Class of executed instruction
system.cpu3.op_class::SimdMult                      0      0.00%     82.47% # Class of executed instruction
system.cpu3.op_class::SimdMultAcc                   0      0.00%     82.47% # Class of executed instruction
system.cpu3.op_class::SimdShift                     0      0.00%     82.47% # Class of executed instruction
system.cpu3.op_class::SimdShiftAcc                  0      0.00%     82.47% # Class of executed instruction
system.cpu3.op_class::SimdSqrt                      0      0.00%     82.47% # Class of executed instruction
system.cpu3.op_class::SimdFloatAdd                  0      0.00%     82.47% # Class of executed instruction
system.cpu3.op_class::SimdFloatAlu                  0      0.00%     82.47% # Class of executed instruction
system.cpu3.op_class::SimdFloatCmp                  0      0.00%     82.47% # Class of executed instruction
system.cpu3.op_class::SimdFloatCvt                  0      0.00%     82.47% # Class of executed instruction
system.cpu3.op_class::SimdFloatDiv                  0      0.00%     82.47% # Class of executed instruction
system.cpu3.op_class::SimdFloatMisc                 0      0.00%     82.47% # Class of executed instruction
system.cpu3.op_class::SimdFloatMult                 0      0.00%     82.47% # Class of executed instruction
system.cpu3.op_class::SimdFloatMultAcc              0      0.00%     82.47% # Class of executed instruction
system.cpu3.op_class::SimdFloatSqrt                 0      0.00%     82.47% # Class of executed instruction
system.cpu3.op_class::MemRead                62867359     13.12%     95.58% # Class of executed instruction
system.cpu3.op_class::MemWrite               21157518      4.42%    100.00% # Class of executed instruction
system.cpu3.op_class::IprAccess                     0      0.00%    100.00% # Class of executed instruction
system.cpu3.op_class::InstPrefetch                  0      0.00%    100.00% # Class of executed instruction
system.cpu3.op_class::total                 479193801                       # Class of executed instruction
system.iobus.trans_dist::ReadReq                  110                       # Transaction distribution
system.iobus.trans_dist::ReadResp                 110                       # Transaction distribution
system.iobus.trans_dist::WriteReq                 585                       # Transaction distribution
system.iobus.trans_dist::WriteResp                585                       # Transaction distribution
system.iobus.trans_dist::MessageReq                21                       # Transaction distribution
system.iobus.trans_dist::MessageResp               21                       # Transaction distribution
system.iobus.pkt_count_system.pc.south_bridge.io_apic.int_master::system.ruby.l1_cntrl0.sequencer.pio-slave-port            4                       # Packet count per connected master and slave (bytes)
system.iobus.pkt_count_system.pc.south_bridge.io_apic.int_master::system.ruby.l1_cntrl1.sequencer.pio-slave-port            4                       # Packet count per connected master and slave (bytes)
system.iobus.pkt_count_system.pc.south_bridge.io_apic.int_master::system.ruby.l1_cntrl2.sequencer.pio-slave-port            4                       # Packet count per connected master and slave (bytes)
system.iobus.pkt_count_system.pc.south_bridge.io_apic.int_master::system.ruby.l1_cntrl3.sequencer.pio-slave-port            4                       # Packet count per connected master and slave (bytes)
system.iobus.pkt_count_system.pc.south_bridge.io_apic.int_master::total           16                       # Packet count per connected master and slave (bytes)
system.iobus.pkt_count_system.ruby.l1_cntrl0.sequencer.mem-master-port::system.pc.south_bridge.ide.pio           34                       # Packet count per connected master and slave (bytes)
system.iobus.pkt_count_system.ruby.l1_cntrl0.sequencer.mem-master-port::system.pc.south_bridge.io_apic.pio           14                       # Packet count per connected master and slave (bytes)
system.iobus.pkt_count_system.ruby.l1_cntrl0.sequencer.mem-master-port::system.pc.com_1.pio          162                       # Packet count per connected master and slave (bytes)
system.iobus.pkt_count_system.ruby.l1_cntrl0.sequencer.mem-master-port::system.ruby.l1_cntrl0.sequencer.pio-slave-port          252                       # Packet count per connected master and slave (bytes)
system.iobus.pkt_count_system.ruby.l1_cntrl0.sequencer.mem-master-port::system.ruby.l1_cntrl1.sequencer.pio-slave-port            2                       # Packet count per connected master and slave (bytes)
system.iobus.pkt_count_system.ruby.l1_cntrl0.sequencer.mem-master-port::total          464                       # Packet count per connected master and slave (bytes)
system.iobus.pkt_count_system.ruby.l1_cntrl1.sequencer.mem-master-port::system.pc.south_bridge.ide.pio           46                       # Packet count per connected master and slave (bytes)
system.iobus.pkt_count_system.ruby.l1_cntrl1.sequencer.mem-master-port::system.pc.south_bridge.io_apic.pio            8                       # Packet count per connected master and slave (bytes)
system.iobus.pkt_count_system.ruby.l1_cntrl1.sequencer.mem-master-port::system.ruby.l1_cntrl0.sequencer.pio-slave-port            4                       # Packet count per connected master and slave (bytes)
system.iobus.pkt_count_system.ruby.l1_cntrl1.sequencer.mem-master-port::system.ruby.l1_cntrl1.sequencer.pio-slave-port          262                       # Packet count per connected master and slave (bytes)
system.iobus.pkt_count_system.ruby.l1_cntrl1.sequencer.mem-master-port::system.ruby.l1_cntrl2.sequencer.pio-slave-port            2                       # Packet count per connected master and slave (bytes)
system.iobus.pkt_count_system.ruby.l1_cntrl1.sequencer.mem-master-port::system.ruby.l1_cntrl3.sequencer.pio-slave-port            4                       # Packet count per connected master and slave (bytes)
system.iobus.pkt_count_system.ruby.l1_cntrl1.sequencer.mem-master-port::total          326                       # Packet count per connected master and slave (bytes)
system.iobus.pkt_count_system.ruby.l1_cntrl2.sequencer.mem-master-port::system.pc.south_bridge.ide.pio           46                       # Packet count per connected master and slave (bytes)
system.iobus.pkt_count_system.ruby.l1_cntrl2.sequencer.mem-master-port::system.pc.south_bridge.io_apic.pio            8                       # Packet count per connected master and slave (bytes)
system.iobus.pkt_count_system.ruby.l1_cntrl2.sequencer.mem-master-port::system.ruby.l1_cntrl2.sequencer.pio-slave-port          246                       # Packet count per connected master and slave (bytes)
system.iobus.pkt_count_system.ruby.l1_cntrl2.sequencer.mem-master-port::system.ruby.l1_cntrl3.sequencer.pio-slave-port            2                       # Packet count per connected master and slave (bytes)
system.iobus.pkt_count_system.ruby.l1_cntrl2.sequencer.mem-master-port::total          302                       # Packet count per connected master and slave (bytes)
system.iobus.pkt_count_system.ruby.l1_cntrl3.sequencer.mem-master-port::system.pc.south_bridge.ide.pio           12                       # Packet count per connected master and slave (bytes)
system.iobus.pkt_count_system.ruby.l1_cntrl3.sequencer.mem-master-port::system.pc.south_bridge.io_apic.pio            6                       # Packet count per connected master and slave (bytes)
system.iobus.pkt_count_system.ruby.l1_cntrl3.sequencer.mem-master-port::system.pc.com_1.pio           22                       # Packet count per connected master and slave (bytes)
system.iobus.pkt_count_system.ruby.l1_cntrl3.sequencer.mem-master-port::system.ruby.l1_cntrl0.sequencer.pio-slave-port            6                       # Packet count per connected master and slave (bytes)
system.iobus.pkt_count_system.ruby.l1_cntrl3.sequencer.mem-master-port::system.ruby.l1_cntrl1.sequencer.pio-slave-port            2                       # Packet count per connected master and slave (bytes)
system.iobus.pkt_count_system.ruby.l1_cntrl3.sequencer.mem-master-port::system.ruby.l1_cntrl2.sequencer.pio-slave-port            4                       # Packet count per connected master and slave (bytes)
system.iobus.pkt_count_system.ruby.l1_cntrl3.sequencer.mem-master-port::system.ruby.l1_cntrl3.sequencer.pio-slave-port          272                       # Packet count per connected master and slave (bytes)
system.iobus.pkt_count_system.ruby.l1_cntrl3.sequencer.mem-master-port::total          324                       # Packet count per connected master and slave (bytes)
system.iobus.pkt_count::total                    1432                       # Packet count per connected master and slave (bytes)
system.iobus.pkt_size_system.pc.south_bridge.io_apic.int_master::system.ruby.l1_cntrl0.sequencer.pio-slave-port            8                       # Cumulative packet size per connected master and slave (bytes)
system.iobus.pkt_size_system.pc.south_bridge.io_apic.int_master::system.ruby.l1_cntrl1.sequencer.pio-slave-port            8                       # Cumulative packet size per connected master and slave (bytes)
system.iobus.pkt_size_system.pc.south_bridge.io_apic.int_master::system.ruby.l1_cntrl2.sequencer.pio-slave-port            8                       # Cumulative packet size per connected master and slave (bytes)
system.iobus.pkt_size_system.pc.south_bridge.io_apic.int_master::system.ruby.l1_cntrl3.sequencer.pio-slave-port            8                       # Cumulative packet size per connected master and slave (bytes)
system.iobus.pkt_size_system.pc.south_bridge.io_apic.int_master::total           32                       # Cumulative packet size per connected master and slave (bytes)
system.iobus.pkt_size_system.ruby.l1_cntrl0.sequencer.mem-master-port::system.pc.south_bridge.ide.pio           20                       # Cumulative packet size per connected master and slave (bytes)
system.iobus.pkt_size_system.ruby.l1_cntrl0.sequencer.mem-master-port::system.pc.south_bridge.io_apic.pio           28                       # Cumulative packet size per connected master and slave (bytes)
system.iobus.pkt_size_system.ruby.l1_cntrl0.sequencer.mem-master-port::system.pc.com_1.pio           81                       # Cumulative packet size per connected master and slave (bytes)
system.iobus.pkt_size_system.ruby.l1_cntrl0.sequencer.mem-master-port::system.ruby.l1_cntrl0.sequencer.pio-slave-port          504                       # Cumulative packet size per connected master and slave (bytes)
system.iobus.pkt_size_system.ruby.l1_cntrl0.sequencer.mem-master-port::system.ruby.l1_cntrl1.sequencer.pio-slave-port            4                       # Cumulative packet size per connected master and slave (bytes)
system.iobus.pkt_size_system.ruby.l1_cntrl0.sequencer.mem-master-port::total          637                       # Cumulative packet size per connected master and slave (bytes)
system.iobus.pkt_size_system.ruby.l1_cntrl1.sequencer.mem-master-port::system.pc.south_bridge.ide.pio           26                       # Cumulative packet size per connected master and slave (bytes)
system.iobus.pkt_size_system.ruby.l1_cntrl1.sequencer.mem-master-port::system.pc.south_bridge.io_apic.pio           16                       # Cumulative packet size per connected master and slave (bytes)
system.iobus.pkt_size_system.ruby.l1_cntrl1.sequencer.mem-master-port::system.ruby.l1_cntrl0.sequencer.pio-slave-port            8                       # Cumulative packet size per connected master and slave (bytes)
system.iobus.pkt_size_system.ruby.l1_cntrl1.sequencer.mem-master-port::system.ruby.l1_cntrl1.sequencer.pio-slave-port          524                       # Cumulative packet size per connected master and slave (bytes)
system.iobus.pkt_size_system.ruby.l1_cntrl1.sequencer.mem-master-port::system.ruby.l1_cntrl2.sequencer.pio-slave-port            4                       # Cumulative packet size per connected master and slave (bytes)
system.iobus.pkt_size_system.ruby.l1_cntrl1.sequencer.mem-master-port::system.ruby.l1_cntrl3.sequencer.pio-slave-port            8                       # Cumulative packet size per connected master and slave (bytes)
system.iobus.pkt_size_system.ruby.l1_cntrl1.sequencer.mem-master-port::total          586                       # Cumulative packet size per connected master and slave (bytes)
system.iobus.pkt_size_system.ruby.l1_cntrl2.sequencer.mem-master-port::system.pc.south_bridge.ide.pio           26                       # Cumulative packet size per connected master and slave (bytes)
system.iobus.pkt_size_system.ruby.l1_cntrl2.sequencer.mem-master-port::system.pc.south_bridge.io_apic.pio           16                       # Cumulative packet size per connected master and slave (bytes)
system.iobus.pkt_size_system.ruby.l1_cntrl2.sequencer.mem-master-port::system.ruby.l1_cntrl2.sequencer.pio-slave-port          492                       # Cumulative packet size per connected master and slave (bytes)
system.iobus.pkt_size_system.ruby.l1_cntrl2.sequencer.mem-master-port::system.ruby.l1_cntrl3.sequencer.pio-slave-port            4                       # Cumulative packet size per connected master and slave (bytes)
system.iobus.pkt_size_system.ruby.l1_cntrl2.sequencer.mem-master-port::total          538                       # Cumulative packet size per connected master and slave (bytes)
system.iobus.pkt_size_system.ruby.l1_cntrl3.sequencer.mem-master-port::system.pc.south_bridge.ide.pio            6                       # Cumulative packet size per connected master and slave (bytes)
system.iobus.pkt_size_system.ruby.l1_cntrl3.sequencer.mem-master-port::system.pc.south_bridge.io_apic.pio           12                       # Cumulative packet size per connected master and slave (bytes)
system.iobus.pkt_size_system.ruby.l1_cntrl3.sequencer.mem-master-port::system.pc.com_1.pio           11                       # Cumulative packet size per connected master and slave (bytes)
system.iobus.pkt_size_system.ruby.l1_cntrl3.sequencer.mem-master-port::system.ruby.l1_cntrl0.sequencer.pio-slave-port           12                       # Cumulative packet size per connected master and slave (bytes)
system.iobus.pkt_size_system.ruby.l1_cntrl3.sequencer.mem-master-port::system.ruby.l1_cntrl1.sequencer.pio-slave-port            4                       # Cumulative packet size per connected master and slave (bytes)
system.iobus.pkt_size_system.ruby.l1_cntrl3.sequencer.mem-master-port::system.ruby.l1_cntrl2.sequencer.pio-slave-port            8                       # Cumulative packet size per connected master and slave (bytes)
system.iobus.pkt_size_system.ruby.l1_cntrl3.sequencer.mem-master-port::system.ruby.l1_cntrl3.sequencer.pio-slave-port          544                       # Cumulative packet size per connected master and slave (bytes)
system.iobus.pkt_size_system.ruby.l1_cntrl3.sequencer.mem-master-port::total          597                       # Cumulative packet size per connected master and slave (bytes)
system.iobus.pkt_size::total                     2390                       # Cumulative packet size per connected master and slave (bytes)
system.iobus.reqLayer2.occupancy               120500                       # Layer occupancy (ticks)
system.iobus.reqLayer2.utilization                0.0                       # Layer utilization (%)
system.iobus.reqLayer8.occupancy                32496                       # Layer occupancy (ticks)
system.iobus.reqLayer8.utilization                0.0                       # Layer utilization (%)
system.iobus.reqLayer12.occupancy              118500                       # Layer occupancy (ticks)
system.iobus.reqLayer12.utilization               0.0                       # Layer utilization (%)
system.iobus.reqLayer17.occupancy              326499                       # Layer occupancy (ticks)
system.iobus.reqLayer17.utilization               0.0                       # Layer utilization (%)
system.iobus.reqLayer18.occupancy              328497                       # Layer occupancy (ticks)
system.iobus.reqLayer18.utilization               0.0                       # Layer utilization (%)
system.iobus.reqLayer19.occupancy              313998                       # Layer occupancy (ticks)
system.iobus.reqLayer19.utilization               0.0                       # Layer utilization (%)
system.iobus.reqLayer20.occupancy              324994                       # Layer occupancy (ticks)
system.iobus.reqLayer20.utilization               0.0                       # Layer utilization (%)
system.iobus.respLayer0.occupancy               10997                       # Layer occupancy (ticks)
system.iobus.respLayer0.utilization               0.0                       # Layer utilization (%)
system.iobus.respLayer2.occupancy              362000                       # Layer occupancy (ticks)
system.iobus.respLayer2.utilization               0.0                       # Layer utilization (%)
system.iobus.respLayer4.occupancy              242500                       # Layer occupancy (ticks)
system.iobus.respLayer4.utilization               0.0                       # Layer utilization (%)
system.iobus.respLayer6.occupancy              223500                       # Layer occupancy (ticks)
system.iobus.respLayer6.utilization               0.0                       # Layer utilization (%)
system.iobus.respLayer8.occupancy              248000                       # Layer occupancy (ticks)
system.iobus.respLayer8.utilization               0.0                       # Layer utilization (%)
system.pc.south_bridge.ide.disks.dma_read_full_pages            0                       # Number of full page size DMA reads (not PRD).
system.pc.south_bridge.ide.disks.dma_read_bytes            0                       # Number of bytes transfered via DMA reads (not PRD).
system.pc.south_bridge.ide.disks.dma_read_txs            0                       # Number of DMA read transactions (not PRD).
system.pc.south_bridge.ide.disks.dma_write_full_pages           45                       # Number of full page size DMA writes.
system.pc.south_bridge.ide.disks.dma_write_bytes       184320                       # Number of bytes transfered via DMA writes.
system.pc.south_bridge.ide.disks.dma_write_txs           45                       # Number of DMA write transactions.
system.ruby.clk_domain.clock                      500                       # Clock period in ticks
system.ruby.delayHist::bucket_size                  4                       # delay histogram for all message
system.ruby.delayHist::max_bucket                  39                       # delay histogram for all message
system.ruby.delayHist::samples                1258904                       # delay histogram for all message
system.ruby.delayHist::mean                  0.312141                       # delay histogram for all message
system.ruby.delayHist::stdev                 1.551364                       # delay histogram for all message
system.ruby.delayHist                    |     1210174     96.13%     96.13% |         295      0.02%     96.15% |       48290      3.84%     99.99% |          44      0.00%     99.99% |          86      0.01%    100.00% |           5      0.00%    100.00% |           9      0.00%    100.00% |           1      0.00%    100.00% |           0      0.00%    100.00% |           0      0.00%    100.00% # delay histogram for all message
system.ruby.delayHist::total                  1258904                       # delay histogram for all message
system.ruby.outstanding_req_hist_seqr::bucket_size            1                      
system.ruby.outstanding_req_hist_seqr::max_bucket            9                      
system.ruby.outstanding_req_hist_seqr::samples    462227506                      
system.ruby.outstanding_req_hist_seqr::mean     1.000000                      
system.ruby.outstanding_req_hist_seqr::gmean     1.000000                      
[...]
system.ruby.DMA_Controller.READY.WriteRequest::total         3008                      
system.ruby.DMA_Controller.BUSY_RD.Data  |          47    100.00%    100.00% |           0      0.00%    100.00%
system.ruby.DMA_Controller.BUSY_RD.Data::total           47                      
system.ruby.DMA_Controller.BUSY_WR.Ack   |        3008    100.00%    100.00% |           0      0.00%    100.00%
system.ruby.DMA_Controller.BUSY_WR.Ack::total         3008                      
system.ruby.L1Cache_Controller.Load      |      450020      0.66%      0.66% |     3831851      5.64%      6.30% |      586680      0.86%      7.16% |    63119301     92.84%    100.00%
system.ruby.L1Cache_Controller.Load::total     67987852                      
system.ruby.L1Cache_Controller.Ifetch    |     2363857      0.59%      0.59% |    21765003      5.40%      5.98% |     2976814      0.74%      6.72% |   376110316     93.28%    100.00%
system.ruby.L1Cache_Controller.Ifetch::total    403215990                      
system.ruby.L1Cache_Controller.Store     |      343779      1.38%      1.38% |     2779110     11.14%     12.51% |      470805      1.89%     14.40% |    21362761     85.60%    100.00%
system.ruby.L1Cache_Controller.Store::total     24956455                      
system.ruby.L1Cache_Controller.Inv       |        6761     21.70%     21.70% |        9989     32.05%     53.75% |        7613     24.43%     78.18% |        6800     21.82%    100.00%
system.ruby.L1Cache_Controller.Inv::total        31163                      
system.ruby.L1Cache_Controller.L1_Replacement |       44134      8.87%      8.87% |      151516     30.46%     39.33% |       42861      8.62%     47.94% |      258995     52.06%    100.00%
system.ruby.L1Cache_Controller.L1_Replacement::total       497506                      
system.ruby.L1Cache_Controller.Fwd_GETX  |         370     13.47%     13.47% |        1091     39.73%     53.20% |         669     24.36%     77.57% |         616     22.43%    100.00%
system.ruby.L1Cache_Controller.Fwd_GETX::total         2746                      
system.ruby.L1Cache_Controller.Fwd_GETS  |        2474     30.01%     30.01% |        2415     29.29%     59.30% |        2135     25.89%     85.19% |        1221     14.81%    100.00%
system.ruby.L1Cache_Controller.Fwd_GETS::total         8245                      
system.ruby.L1Cache_Controller.Data      |         138     11.80%     11.80% |         440     37.64%     49.44% |         241     20.62%     70.06% |         350     29.94%    100.00%
system.ruby.L1Cache_Controller.Data::total         1169                      
system.ruby.L1Cache_Controller.Data_Exclusive |       11086      4.75%      4.75% |       30119     12.90%     17.65% |       10939      4.68%     22.33% |      181372     77.67%    100.00%
system.ruby.L1Cache_Controller.Data_Exclusive::total       233516                      
system.ruby.L1Cache_Controller.DataS_fromL1 |        1567     19.01%     19.01% |        2449     29.70%     48.71% |        2138     25.93%     74.64% |        2091     25.36%    100.00%
system.ruby.L1Cache_Controller.DataS_fromL1::total         8245                      
system.ruby.L1Cache_Controller.Data_all_Acks |       32050     12.38%     12.38% |      119769     46.26%     58.64% |       31347     12.11%     70.75% |       75730     29.25%    100.00%
system.ruby.L1Cache_Controller.Data_all_Acks::total       258896                      
system.ruby.L1Cache_Controller.Ack       |        3598     38.33%     38.33% |        2485     26.48%     64.81% |        1557     16.59%     81.40% |        1746     18.60%    100.00%
system.ruby.L1Cache_Controller.Ack::total         9386                      
system.ruby.L1Cache_Controller.Ack_all   |        1974     27.85%     27.85% |        2264     31.94%     59.78% |        1361     19.20%     78.98% |        1490     21.02%    100.00%
system.ruby.L1Cache_Controller.Ack_all::total         7089                      
system.ruby.L1Cache_Controller.WB_Ack    |       15763      5.25%      5.25% |       47870     15.93%     21.18% |       17094      5.69%     26.87% |      219751     73.13%    100.00%
system.ruby.L1Cache_Controller.WB_Ack::total       300478                      
system.ruby.L1Cache_Controller.NP.Load   |       14695      5.68%      5.68% |       36937     14.26%     19.94% |       15261      5.89%     25.83% |      192049     74.17%    100.00%
system.ruby.L1Cache_Controller.NP.Load::total       258942                      
system.ruby.L1Cache_Controller.NP.Ifetch |       23239     14.28%     14.28% |       94381     58.01%     72.29% |       18734     11.51%     83.81% |       26342     16.19%    100.00%
system.ruby.L1Cache_Controller.NP.Ifetch::total       162696                      
system.ruby.L1Cache_Controller.NP.Store  |        6322      8.26%      8.26% |       20198     26.39%     34.65% |        9405     12.29%     46.94% |       40604     53.06%    100.00%
system.ruby.L1Cache_Controller.NP.Store::total        76529                      
system.ruby.L1Cache_Controller.NP.Inv    |        3623     22.88%     22.88% |        5552     35.05%     57.93% |        2616     16.52%     74.45% |        4047     25.55%    100.00%
system.ruby.L1Cache_Controller.NP.Inv::total        15838                      
system.ruby.L1Cache_Controller.I.Load    |         382     13.61%     13.61% |        1039     37.01%     50.62% |        1071     38.15%     88.78% |         315     11.22%    100.00%
system.ruby.L1Cache_Controller.I.Load::total         2807                      
system.ruby.L1Cache_Controller.I.Ifetch  |          44     19.47%     19.47% |          65     28.76%     48.23% |          54     23.89%     72.12% |          63     27.88%    100.00%
system.ruby.L1Cache_Controller.I.Ifetch::total          226                      
system.ruby.L1Cache_Controller.I.Store   |         159     25.48%     25.48% |         157     25.16%     50.64% |         138     22.12%     72.76% |         170     27.24%    100.00%
system.ruby.L1Cache_Controller.I.Store::total          624                      
system.ruby.L1Cache_Controller.I.L1_Replacement |        2544     18.78%     18.78% |        3821     28.20%     46.98% |        4025     29.71%     76.69% |        3158     23.31%    100.00%
system.ruby.L1Cache_Controller.I.L1_Replacement::total        13548                      
system.ruby.L1Cache_Controller.S.Load    |       53057      0.24%      0.24% |      138059      0.62%      0.86% |       74741      0.34%      1.19% |    22037313     98.81%    100.00%
system.ruby.L1Cache_Controller.S.Load::total     22303170                      
system.ruby.L1Cache_Controller.S.Ifetch  |     2340573      0.58%      0.58% |    21670556      5.38%      5.96% |     2958026      0.73%      6.69% |   376083911     93.31%    100.00%
system.ruby.L1Cache_Controller.S.Ifetch::total    403053066                      
system.ruby.L1Cache_Controller.S.Store   |        1836     31.00%     31.00% |        1824     30.80%     61.80% |        1122     18.95%     80.75% |        1140     19.25%    100.00%
system.ruby.L1Cache_Controller.S.Store::total         5922                      
system.ruby.L1Cache_Controller.S.Inv     |        2158     21.34%     21.34% |        3082     30.48%     51.82% |        3391     33.53%     85.35% |        1481     14.65%    100.00%
system.ruby.L1Cache_Controller.S.Inv::total        10112                      
system.ruby.L1Cache_Controller.S.L1_Replacement |       25827     14.08%     14.08% |       99825     54.41%     68.48% |       21742     11.85%     80.33% |       36086     19.67%    100.00%
system.ruby.L1Cache_Controller.S.L1_Replacement::total       183480                      
system.ruby.L1Cache_Controller.E.Load    |      105871      0.62%      0.62% |      399653      2.34%      2.96% |       96940      0.57%      3.53% |    16448756     96.47%    100.00%
system.ruby.L1Cache_Controller.E.Load::total     17051220                      
system.ruby.L1Cache_Controller.E.Store   |        3397     16.23%     16.23% |       10271     49.07%     65.30% |        2671     12.76%     78.06% |        4591     21.94%    100.00%
system.ruby.L1Cache_Controller.E.Store::total        20930                      
system.ruby.L1Cache_Controller.E.Inv     |         402     20.04%     20.04% |         498     24.83%     44.87% |         625     31.16%     76.02% |         481     23.98%    100.00%
system.ruby.L1Cache_Controller.E.Inv::total         2006                      
system.ruby.L1Cache_Controller.E.L1_Replacement |        6480      3.14%      3.14% |       17877      8.68%     11.82% |        6368      3.09%     14.91% |      175337     85.09%    100.00%
system.ruby.L1Cache_Controller.E.L1_Replacement::total       206062                      
system.ruby.L1Cache_Controller.E.Fwd_GETX |          47      4.13%      4.13% |         716     62.92%     67.05% |         242     21.27%     88.31% |         133     11.69%    100.00%
system.ruby.L1Cache_Controller.E.Fwd_GETX::total         1138                      
system.ruby.L1Cache_Controller.E.Fwd_GETS |         810     24.07%     24.07% |        1177     34.98%     59.05% |         984     29.24%     88.29% |         394     11.71%    100.00%
system.ruby.L1Cache_Controller.E.Fwd_GETS::total         3365                      
system.ruby.L1Cache_Controller.M.Load    |      276015      0.97%      0.97% |     3256163     11.48%     12.45% |      398667      1.41%     13.85% |    24440868     86.15%    100.00%
system.ruby.L1Cache_Controller.M.Load::total     28371713                      
system.ruby.L1Cache_Controller.M.Store   |      332065      1.34%      1.34% |     2746660     11.05%     12.39% |      457469      1.84%     14.23% |    21316256     85.77%    100.00%
system.ruby.L1Cache_Controller.M.Store::total     24852450                      
system.ruby.L1Cache_Controller.M.Inv     |         578     18.04%     18.04% |         857     26.75%     44.79% |         979     30.56%     75.34% |         790     24.66%    100.00%
system.ruby.L1Cache_Controller.M.Inv::total         3204                      
system.ruby.L1Cache_Controller.M.L1_Replacement |        9283      9.83%      9.83% |       29993     31.77%     41.60% |       10726     11.36%     52.96% |       44414     47.04%    100.00%
system.ruby.L1Cache_Controller.M.L1_Replacement::total        94416                      
system.ruby.L1Cache_Controller.M.Fwd_GETX |         323     20.09%     20.09% |         375     23.32%     43.41% |         427     26.55%     69.96% |         483     30.04%    100.00%
system.ruby.L1Cache_Controller.M.Fwd_GETX::total         1608                      
system.ruby.L1Cache_Controller.M.Fwd_GETS |        1664     34.10%     34.10% |        1238     25.37%     59.47% |        1151     23.59%     83.05% |         827     16.95%    100.00%
system.ruby.L1Cache_Controller.M.Fwd_GETS::total         4880                      
system.ruby.L1Cache_Controller.IS.Data_Exclusive |       11086      4.75%      4.75% |       30119     12.90%     17.65% |       10939      4.68%     22.33% |      181372     77.67%    100.00%
system.ruby.L1Cache_Controller.IS.Data_Exclusive::total       233516                      
system.ruby.L1Cache_Controller.IS.DataS_fromL1 |        1567     19.01%     19.01% |        2449     29.70%     48.71% |        2138     25.93%     74.64% |        2091     25.36%    100.00%
system.ruby.L1Cache_Controller.IS.DataS_fromL1::total         8245                      
system.ruby.L1Cache_Controller.IS.Data_all_Acks |       25707     14.05%     14.05% |       99854     54.59%     68.65% |       22043     12.05%     80.70% |       35306     19.30%    100.00%
system.ruby.L1Cache_Controller.IS.Data_all_Acks::total       182910                      
system.ruby.L1Cache_Controller.IM.Data   |         138     11.80%     11.80% |         440     37.64%     49.44% |         241     20.62%     70.06% |         350     29.94%    100.00%
system.ruby.L1Cache_Controller.IM.Data::total         1169                      
system.ruby.L1Cache_Controller.IM.Data_all_Acks |        6343      8.35%      8.35% |       19915     26.21%     34.56% |        9304     12.24%     46.80% |       40424     53.20%    100.00%
system.ruby.L1Cache_Controller.IM.Data_all_Acks::total        75986                      
system.ruby.L1Cache_Controller.SM.Inv    |           0      0.00%      0.00% |           0      0.00%      0.00% |           2    100.00%    100.00% |           0      0.00%    100.00%
system.ruby.L1Cache_Controller.SM.Inv::total            2                      
system.ruby.L1Cache_Controller.SM.Ack    |        3598     38.33%     38.33% |        2485     26.48%     64.81% |        1557     16.59%     81.40% |        1746     18.60%    100.00%
system.ruby.L1Cache_Controller.SM.Ack::total         9386                      
system.ruby.L1Cache_Controller.SM.Ack_all |        1974     27.85%     27.85% |        2264     31.94%     59.78% |        1361     19.20%     78.98% |        1490     21.02%    100.00%
system.ruby.L1Cache_Controller.SM.Ack_all::total         7089                      
system.ruby.L1Cache_Controller.M_I.Ifetch |           1     50.00%     50.00% |           1     50.00%    100.00% |           0      0.00%    100.00% |           0      0.00%    100.00%
system.ruby.L1Cache_Controller.M_I.Ifetch::total            2                      
system.ruby.L1Cache_Controller.M_I.Inv   |           0      0.00%      0.00% |           0      0.00%      0.00% |           0      0.00%      0.00% |           1    100.00%    100.00%
system.ruby.L1Cache_Controller.M_I.Inv::total            1                      
system.ruby.L1Cache_Controller.M_I.WB_Ack |       15763      5.25%      5.25% |       47870     15.93%     21.18% |       17094      5.69%     26.87% |      219750     73.13%    100.00%
system.ruby.L1Cache_Controller.M_I.WB_Ack::total       300477                      
system.ruby.L1Cache_Controller.SINK_WB_ACK.WB_Ack |           0      0.00%      0.00% |           0      0.00%      0.00% |           0      0.00%      0.00% |           1    100.00%    100.00%
system.ruby.L1Cache_Controller.SINK_WB_ACK.WB_Ack::total            1                      
system.ruby.L2Cache_Controller.L1_GET_INSTR       162922      0.00%      0.00%
system.ruby.L2Cache_Controller.L1_GETS         261801      0.00%      0.00%
system.ruby.L2Cache_Controller.L1_GETX          77159      0.00%      0.00%
system.ruby.L2Cache_Controller.L1_UPGRADE         5922      0.00%      0.00%
system.ruby.L2Cache_Controller.L1_PUTX         300477      0.00%      0.00%
system.ruby.L2Cache_Controller.L1_PUTX_old            2      0.00%      0.00%
system.ruby.L2Cache_Controller.L2_Replacement        21527      0.00%      0.00%
system.ruby.L2Cache_Controller.L2_Replacement_clean        24642      0.00%      0.00%
system.ruby.L2Cache_Controller.Mem_Data         55811      0.00%      0.00%
system.ruby.L2Cache_Controller.Mem_Ack          46210      0.00%      0.00%
system.ruby.L2Cache_Controller.WB_Data           8084      0.00%      0.00%
system.ruby.L2Cache_Controller.WB_Data_clean         3366      0.00%      0.00%
system.ruby.L2Cache_Controller.Ack               6202      0.00%      0.00%
system.ruby.L2Cache_Controller.Ack_all          11201      0.00%      0.00%
system.ruby.L2Cache_Controller.Unblock           8245      0.00%      0.00%
system.ruby.L2Cache_Controller.Exclusive_Unblock       316591      0.00%      0.00%
system.ruby.L2Cache_Controller.MEM_Inv             82      0.00%      0.00%
system.ruby.L2Cache_Controller.NP.L1_GET_INSTR         9843      0.00%      0.00%
system.ruby.L2Cache_Controller.NP.L1_GETS        25942      0.00%      0.00%
system.ruby.L2Cache_Controller.NP.L1_GETX        20026      0.00%      0.00%
system.ruby.L2Cache_Controller.NP.L1_PUTX_old            1      0.00%      0.00%
system.ruby.L2Cache_Controller.SS.L1_GET_INSTR       153073      0.00%      0.00%
system.ruby.L2Cache_Controller.SS.L1_GETS        19950      0.00%      0.00%
system.ruby.L2Cache_Controller.SS.L1_GETX         1169      0.00%      0.00%
system.ruby.L2Cache_Controller.SS.L1_UPGRADE         5920      0.00%      0.00%
system.ruby.L2Cache_Controller.SS.L2_Replacement          339      0.00%      0.00%
system.ruby.L2Cache_Controller.SS.L2_Replacement_clean         8856      0.00%      0.00%
system.ruby.L2Cache_Controller.M.L1_GET_INSTR            6      0.00%      0.00%
system.ruby.L2Cache_Controller.M.L1_GETS       207593      0.00%      0.00%
system.ruby.L2Cache_Controller.M.L1_GETX        53214      0.00%      0.00%
system.ruby.L2Cache_Controller.M.L2_Replacement        20460      0.00%      0.00%
system.ruby.L2Cache_Controller.M.L2_Replacement_clean        11312      0.00%      0.00%
system.ruby.L2Cache_Controller.M.MEM_Inv           32      0.00%      0.00%
system.ruby.L2Cache_Controller.MT.L1_GETS         8245      0.00%      0.00%
system.ruby.L2Cache_Controller.MT.L1_GETX         2746      0.00%      0.00%
system.ruby.L2Cache_Controller.MT.L1_PUTX       300477      0.00%      0.00%
system.ruby.L2Cache_Controller.MT.L2_Replacement          728      0.00%      0.00%
system.ruby.L2Cache_Controller.MT.L2_Replacement_clean         4474      0.00%      0.00%
system.ruby.L2Cache_Controller.MT.MEM_Inv            9      0.00%      0.00%
system.ruby.L2Cache_Controller.M_I.L1_GETS            2      0.00%      0.00%
system.ruby.L2Cache_Controller.M_I.Mem_Ack        46210      0.00%      0.00%
system.ruby.L2Cache_Controller.M_I.MEM_Inv           32      0.00%      0.00%
system.ruby.L2Cache_Controller.MT_I.WB_Data          546      0.00%      0.00%
system.ruby.L2Cache_Controller.MT_I.Ack_all          191      0.00%      0.00%
system.ruby.L2Cache_Controller.MT_I.MEM_Inv            9      0.00%      0.00%
system.ruby.L2Cache_Controller.MCT_I.L1_PUTX_old            1      0.00%      0.00%
system.ruby.L2Cache_Controller.MCT_I.WB_Data         2658      0.00%      0.00%
system.ruby.L2Cache_Controller.MCT_I.WB_Data_clean            1      0.00%      0.00%
system.ruby.L2Cache_Controller.MCT_I.Ack_all         1815      0.00%      0.00%
system.ruby.L2Cache_Controller.I_I.Ack           5825      0.00%      0.00%
system.ruby.L2Cache_Controller.I_I.Ack_all         8856      0.00%      0.00%
system.ruby.L2Cache_Controller.S_I.Ack            377      0.00%      0.00%
system.ruby.L2Cache_Controller.S_I.Ack_all          339      0.00%      0.00%
system.ruby.L2Cache_Controller.ISS.L1_GETS           19      0.00%      0.00%
system.ruby.L2Cache_Controller.ISS.Mem_Data        25923      0.00%      0.00%
system.ruby.L2Cache_Controller.IS.Mem_Data         9862      0.00%      0.00%
system.ruby.L2Cache_Controller.IM.Mem_Data        20026      0.00%      0.00%
system.ruby.L2Cache_Controller.SS_MB.L1_GETS           34      0.00%      0.00%
system.ruby.L2Cache_Controller.SS_MB.L1_UPGRADE            2      0.00%      0.00%
system.ruby.L2Cache_Controller.SS_MB.Exclusive_Unblock         7089      0.00%      0.00%
system.ruby.L2Cache_Controller.MT_MB.L1_GETS           12      0.00%      0.00%
system.ruby.L2Cache_Controller.MT_MB.L1_GETX            2      0.00%      0.00%
system.ruby.L2Cache_Controller.MT_MB.Exclusive_Unblock       309502      0.00%      0.00%
system.ruby.L2Cache_Controller.MT_IIB.L1_GETS            4      0.00%      0.00%
system.ruby.L2Cache_Controller.MT_IIB.L1_GETX            2      0.00%      0.00%
system.ruby.L2Cache_Controller.MT_IIB.WB_Data         4869      0.00%      0.00%
system.ruby.L2Cache_Controller.MT_IIB.WB_Data_clean         3349      0.00%      0.00%
system.ruby.L2Cache_Controller.MT_IIB.Unblock           27      0.00%      0.00%
system.ruby.L2Cache_Controller.MT_IB.WB_Data           11      0.00%      0.00%
system.ruby.L2Cache_Controller.MT_IB.WB_Data_clean           16      0.00%      0.00%
system.ruby.L2Cache_Controller.MT_SB.Unblock         8218      0.00%      0.00%

---------- End Simulation Statistics   ----------
