
---------- Begin Simulation Statistics ----------
sim_seconds                                  3.601563                       # Number of seconds simulated
sim_ticks                                3601563078000                       # Number of ticks simulated
final_tick                               55905844712501                       # Number of ticks from beginning of simulation (restored from checkpoints and never reset)
sim_freq                                 1000000000000                       # Frequency of simulated ticks
host_inst_rate                                 143979                       # Simulator instruction rate (inst/s)
host_op_rate                                   245203                       # Simulator op (including micro ops) rate (op/s)
host_tick_rate                              256610829                       # Simulator tick rate (ticks/s)
host_mem_usage                                1869832                       # Number of bytes of host memory used
host_seconds                                 14035.12                       # Real time elapsed on the host
sim_insts                                  2020758339                       # Number of instructions simulated
sim_ops                                    3441449560                       # Number of ops (including micro ops) simulated
system.voltage_domain.voltage                       1                       # Voltage in Volts
system.clk_domain.clock                          1000                       # Clock period in ticks
system.mem_ctrls.bytes_read::ruby.dir_cntrl0      1251904                       # Number of bytes read from this memory
system.mem_ctrls.bytes_read::total            1251904                       # Number of bytes read from this memory
system.mem_ctrls.bytes_written::ruby.dir_cntrl0       389504                       # Number of bytes written to this memory
system.mem_ctrls.bytes_written::total          389504                       # Number of bytes written to this memory
system.mem_ctrls.num_reads::ruby.dir_cntrl0        19561                       # Number of read requests responded to by this memory
system.mem_ctrls.num_reads::total               19561                       # Number of read requests responded to by this memory
system.mem_ctrls.num_writes::ruby.dir_cntrl0         6086                       # Number of write requests responded to by this memory
system.mem_ctrls.num_writes::total               6086                       # Number of write requests responded to by this memory
system.mem_ctrls.bw_read::ruby.dir_cntrl0       347600                       # Total read bandwidth from this memory (bytes/s)
system.mem_ctrls.bw_read::total                347600                       # Total read bandwidth from this memory (bytes/s)
system.mem_ctrls.bw_write::ruby.dir_cntrl0       108149                       # Write bandwidth from this memory (bytes/s)
system.mem_ctrls.bw_write::total               108149                       # Write bandwidth from this memory (bytes/s)
system.mem_ctrls.bw_total::ruby.dir_cntrl0       455749                       # Total bandwidth to/from this memory (bytes/s)
system.mem_ctrls.bw_total::total               455749                       # Total bandwidth to/from this memory (bytes/s)
system.mem_ctrls.readReqs                       19561                       # Number of read requests accepted
system.mem_ctrls.writeReqs                       6086                       # Number of write requests accepted
system.mem_ctrls.readBursts                     19561                       # Number of DRAM read bursts, including those serviced by the write queue
system.mem_ctrls.writeBursts                     6086                       # Number of DRAM write bursts, including those merged in the write queue
system.mem_ctrls.bytesReadDRAM                1248768                       # Total number of bytes read from DRAM
system.mem_ctrls.bytesReadWrQ                    3136                       # Total number of bytes read from write queue
system.mem_ctrls.bytesWritten                  388544                       # Total number of bytes written to DRAM
system.mem_ctrls.bytesReadSys                 1251904                       # Total read bytes from the system interface side
system.mem_ctrls.bytesWrittenSys               389504                       # Total written bytes from the system interface side
system.mem_ctrls.servicedByWrQ                     49                       # Number of DRAM read bursts serviced by the write queue
system.mem_ctrls.mergedWrBursts                     0                       # Number of DRAM write bursts merged with an existing one
system.mem_ctrls.neitherReadNorWriteReqs            0                       # Number of requests that are neither read nor write
system.mem_ctrls.perBankRdBursts::0              1143                       # Per bank write bursts
system.mem_ctrls.perBankRdBursts::1              1396                       # Per bank write bursts
system.mem_ctrls.perBankRdBursts::2              1162                       # Per bank write bursts
system.mem_ctrls.perBankRdBursts::3              1351                       # Per bank write bursts
system.mem_ctrls.perBankRdBursts::4              1331                       # Per bank write bursts
system.mem_ctrls.perBankRdBursts::5              1325                       # Per bank write bursts
system.mem_ctrls.perBankRdBursts::6              1243                       # Per bank write bursts
system.mem_ctrls.perBankRdBursts::7              1586                       # Per bank write bursts
system.mem_ctrls.perBankRdBursts::8              1127                       # Per bank write bursts
system.mem_ctrls.perBankRdBursts::9              1150                       # Per bank write bursts
system.mem_ctrls.perBankRdBursts::10              851                       # Per bank write bursts
system.mem_ctrls.perBankRdBursts::11              860                       # Per bank write bursts
system.mem_ctrls.perBankRdBursts::12              954                       # Per bank write bursts
system.mem_ctrls.perBankRdBursts::13             1224                       # Per bank write bursts
system.mem_ctrls.perBankRdBursts::14             1527                       # Per bank write bursts
system.mem_ctrls.perBankRdBursts::15             1282                       # Per bank write bursts
system.mem_ctrls.perBankWrBursts::0               282                       # Per bank write bursts
system.mem_ctrls.perBankWrBursts::1               374                       # Per bank write bursts
system.mem_ctrls.perBankWrBursts::2               404                       # Per bank write bursts
system.mem_ctrls.perBankWrBursts::3               371                       # Per bank write bursts
system.mem_ctrls.perBankWrBursts::4               434                       # Per bank write bursts
system.mem_ctrls.perBankWrBursts::5               503                       # Per bank write bursts
system.mem_ctrls.perBankWrBursts::6               456                       # Per bank write bursts
system.mem_ctrls.perBankWrBursts::7               665                       # Per bank write bursts
system.mem_ctrls.perBankWrBursts::8               488                       # Per bank write bursts
system.mem_ctrls.perBankWrBursts::9               444                       # Per bank write bursts
system.mem_ctrls.perBankWrBursts::10              360                       # Per bank write bursts
system.mem_ctrls.perBankWrBursts::11              108                       # Per bank write bursts
system.mem_ctrls.perBankWrBursts::12              174                       # Per bank write bursts
system.mem_ctrls.perBankWrBursts::13              182                       # Per bank write bursts
system.mem_ctrls.perBankWrBursts::14              326                       # Per bank write bursts
system.mem_ctrls.perBankWrBursts::15              500                       # Per bank write bursts
system.mem_ctrls.numRdRetry                         0                       # Number of times read queue was full causing retry
system.mem_ctrls.numWrRetry                         0                       # Number of times write queue was full causing retry
system.mem_ctrls.totGap                  3601563023000                       # Total gap between requests
system.mem_ctrls.readPktSize::0                     0                       # Read request sizes (log2)
system.mem_ctrls.readPktSize::1                     0                       # Read request sizes (log2)
system.mem_ctrls.readPktSize::2                     0                       # Read request sizes (log2)
system.mem_ctrls.readPktSize::3                     0                       # Read request sizes (log2)
system.mem_ctrls.readPktSize::4                     0                       # Read request sizes (log2)
system.mem_ctrls.readPktSize::5                     0                       # Read request sizes (log2)
system.mem_ctrls.readPktSize::6                 19561                       # Read request sizes (log2)
system.mem_ctrls.writePktSize::0                    0                       # Write request sizes (log2)
system.mem_ctrls.writePktSize::1                    0                       # Write request sizes (log2)
system.mem_ctrls.writePktSize::2                    0                       # Write request sizes (log2)
system.mem_ctrls.writePktSize::3                    0                       # Write request sizes (log2)
system.mem_ctrls.writePktSize::4                    0                       # Write request sizes (log2)
system.mem_ctrls.writePktSize::5                    0                       # Write request sizes (log2)
system.mem_ctrls.writePktSize::6                 6086                       # Write request sizes (log2)
system.mem_ctrls.rdQLenPdf::0                   19306                       # What read queue length does an incoming req see
system.mem_ctrls.rdQLenPdf::1                     205                       # What read queue length does an incoming req see
system.mem_ctrls.rdQLenPdf::2                       1                       # What read queue length does an incoming req see
system.mem_ctrls.rdQLenPdf::3                       0                       # What read queue length does an incoming req see
system.mem_ctrls.rdQLenPdf::4                       0                       # What read queue length does an incoming req see
system.mem_ctrls.rdQLenPdf::5                       0                       # What read queue length does an incoming req see
system.mem_ctrls.rdQLenPdf::6                       0                       # What read queue length does an incoming req see
system.mem_ctrls.rdQLenPdf::7                       0                       # What read queue length does an incoming req see
system.mem_ctrls.rdQLenPdf::8                       0                       # What read queue length does an incoming req see
system.mem_ctrls.rdQLenPdf::9                       0                       # What read queue length does an incoming req see
system.mem_ctrls.rdQLenPdf::10                      0                       # What read queue length does an incoming req see
system.mem_ctrls.rdQLenPdf::11                      0                       # What read queue length does an incoming req see
system.mem_ctrls.rdQLenPdf::12                      0                       # What read queue length does an incoming req see
system.mem_ctrls.rdQLenPdf::13                      0                       # What read queue length does an incoming req see
system.mem_ctrls.rdQLenPdf::14                      0                       # What read queue length does an incoming req see
system.mem_ctrls.rdQLenPdf::15                      0                       # What read queue length does an incoming req see
system.mem_ctrls.rdQLenPdf::16                      0                       # What read queue length does an incoming req see
system.mem_ctrls.rdQLenPdf::17                      0                       # What read queue length does an incoming req see
system.mem_ctrls.rdQLenPdf::18                      0                       # What read queue length does an incoming req see
system.mem_ctrls.rdQLenPdf::19                      0                       # What read queue length does an incoming req see
system.mem_ctrls.rdQLenPdf::20                      0                       # What read queue length does an incoming req see
system.mem_ctrls.rdQLenPdf::21                      0                       # What read queue length does an incoming req see
system.mem_ctrls.rdQLenPdf::22                      0                       # What read queue length does an incoming req see
system.mem_ctrls.rdQLenPdf::23                      0                       # What read queue length does an incoming req see
system.mem_ctrls.rdQLenPdf::24                      0                       # What read queue length does an incoming req see
system.mem_ctrls.rdQLenPdf::25                      0                       # What read queue length does an incoming req see
system.mem_ctrls.rdQLenPdf::26                      0                       # What read queue length does an incoming req see
system.mem_ctrls.rdQLenPdf::27                      0                       # What read queue length does an incoming req see
system.mem_ctrls.rdQLenPdf::28                      0                       # What read queue length does an incoming req see
system.mem_ctrls.rdQLenPdf::29                      0                       # What read queue length does an incoming req see
system.mem_ctrls.rdQLenPdf::30                      0                       # What read queue length does an incoming req see
system.mem_ctrls.rdQLenPdf::31                      0                       # What read queue length does an incoming req see
system.mem_ctrls.wrQLenPdf::0                       0                       # What write queue length does an incoming req see
system.mem_ctrls.wrQLenPdf::1                       0                       # What write queue length does an incoming req see
system.mem_ctrls.wrQLenPdf::2                       0                       # What write queue length does an incoming req see
system.mem_ctrls.wrQLenPdf::3                       0                       # What write queue length does an incoming req see
system.mem_ctrls.wrQLenPdf::4                       0                       # What write queue length does an incoming req see
system.mem_ctrls.wrQLenPdf::5                       0                       # What write queue length does an incoming req see
system.mem_ctrls.wrQLenPdf::6                       0                       # What write queue length does an incoming req see
system.mem_ctrls.wrQLenPdf::7                       0                       # What write queue length does an incoming req see
system.mem_ctrls.wrQLenPdf::8                       0                       # What write queue length does an incoming req see
system.mem_ctrls.wrQLenPdf::9                       0                       # What write queue length does an incoming req see
system.mem_ctrls.wrQLenPdf::10                      0                       # What write queue length does an incoming req see
system.mem_ctrls.wrQLenPdf::11                      1                       # What write queue length does an incoming req see
system.mem_ctrls.wrQLenPdf::12                      1                       # What write queue length does an incoming req see
system.mem_ctrls.wrQLenPdf::13                      1                       # What write queue length does an incoming req see
system.mem_ctrls.wrQLenPdf::14                      1                       # What write queue length does an incoming req see
system.mem_ctrls.wrQLenPdf::15                    115                       # What write queue length does an incoming req see
system.mem_ctrls.wrQLenPdf::16                    147                       # What write queue length does an incoming req see
system.mem_ctrls.wrQLenPdf::17                    336                       # What write queue length does an incoming req see
system.mem_ctrls.wrQLenPdf::18                    373                       # What write queue length does an incoming req see
system.mem_ctrls.wrQLenPdf::19                    368                       # What write queue length does an incoming req see
system.mem_ctrls.wrQLenPdf::20                    396                       # What write queue length does an incoming req see
system.mem_ctrls.wrQLenPdf::21                    398                       # What write queue length does an incoming req see
system.mem_ctrls.wrQLenPdf::22                    359                       # What write queue length does an incoming req see
system.mem_ctrls.wrQLenPdf::23                    389                       # What write queue length does an incoming req see
system.mem_ctrls.wrQLenPdf::24                    380                       # What write queue length does an incoming req see
system.mem_ctrls.wrQLenPdf::25                    358                       # What write queue length does an incoming req see
system.mem_ctrls.wrQLenPdf::26                    367                       # What write queue length does an incoming req see
system.mem_ctrls.wrQLenPdf::27                    356                       # What write queue length does an incoming req see
system.mem_ctrls.wrQLenPdf::28                    362                       # What write queue length does an incoming req see
system.mem_ctrls.wrQLenPdf::29                    337                       # What write queue length does an incoming req see
system.mem_ctrls.wrQLenPdf::30                    335                       # What write queue length does an incoming req see
system.mem_ctrls.wrQLenPdf::31                    334                       # What write queue length does an incoming req see
system.mem_ctrls.wrQLenPdf::32                    331                       # What write queue length does an incoming req see
system.mem_ctrls.wrQLenPdf::33                      7                       # What write queue length does an incoming req see
system.mem_ctrls.wrQLenPdf::34                      5                       # What write queue length does an incoming req see
system.mem_ctrls.wrQLenPdf::35                      5                       # What write queue length does an incoming req see
system.mem_ctrls.wrQLenPdf::36                      4                       # What write queue length does an incoming req see
system.mem_ctrls.wrQLenPdf::37                      4                       # What write queue length does an incoming req see
system.mem_ctrls.wrQLenPdf::38                      2                       # What write queue length does an incoming req see
system.mem_ctrls.wrQLenPdf::39                      2                       # What write queue length does an incoming req see
system.mem_ctrls.wrQLenPdf::40                      4                       # What write queue length does an incoming req see
system.mem_ctrls.wrQLenPdf::41                      2                       # What write queue length does an incoming req see
system.mem_ctrls.wrQLenPdf::42                      2                       # What write queue length does an incoming req see
system.mem_ctrls.wrQLenPdf::43                      2                       # What write queue length does an incoming req see
system.mem_ctrls.wrQLenPdf::44                      2                       # What write queue length does an incoming req see
system.mem_ctrls.wrQLenPdf::45                      0                       # What write queue length does an incoming req see
system.mem_ctrls.wrQLenPdf::46                      0                       # What write queue length does an incoming req see
system.mem_ctrls.wrQLenPdf::47                      0                       # What write queue length does an incoming req see
system.mem_ctrls.wrQLenPdf::48                      0                       # What write queue length does an incoming req see
system.mem_ctrls.wrQLenPdf::49                      0                       # What write queue length does an incoming req see
system.mem_ctrls.wrQLenPdf::50                      0                       # What write queue length does an incoming req see
system.mem_ctrls.wrQLenPdf::51                      0                       # What write queue length does an incoming req see
system.mem_ctrls.wrQLenPdf::52                      0                       # What write queue length does an incoming req see
system.mem_ctrls.wrQLenPdf::53                      0                       # What write queue length does an incoming req see
system.mem_ctrls.wrQLenPdf::54                      0                       # What write queue length does an incoming req see
system.mem_ctrls.wrQLenPdf::55                      0                       # What write queue length does an incoming req see
system.mem_ctrls.wrQLenPdf::56                      0                       # What write queue length does an incoming req see
system.mem_ctrls.wrQLenPdf::57                      0                       # What write queue length does an incoming req see
system.mem_ctrls.wrQLenPdf::58                      0                       # What write queue length does an incoming req see
system.mem_ctrls.wrQLenPdf::59                      0                       # What write queue length does an incoming req see
system.mem_ctrls.wrQLenPdf::60                      0                       # What write queue length does an incoming req see
system.mem_ctrls.wrQLenPdf::61                      0                       # What write queue length does an incoming req see
system.mem_ctrls.wrQLenPdf::62                      0                       # What write queue length does an incoming req see
system.mem_ctrls.wrQLenPdf::63                      0                       # What write queue length does an incoming req see
system.mem_ctrls.bytesPerActivate::samples         7010                       # Bytes accessed per row activation
system.mem_ctrls.bytesPerActivate::mean    233.568046                       # Bytes accessed per row activation
system.mem_ctrls.bytesPerActivate::gmean   132.650667                       # Bytes accessed per row activation
system.mem_ctrls.bytesPerActivate::stdev   301.346412                       # Bytes accessed per row activation
system.mem_ctrls.bytesPerActivate::0-127         3706     52.87%     52.87% # Bytes accessed per row activation
system.mem_ctrls.bytesPerActivate::128-255         1594     22.74%     75.61% # Bytes accessed per row activation
system.mem_ctrls.bytesPerActivate::256-383          391      5.58%     81.18% # Bytes accessed per row activation
system.mem_ctrls.bytesPerActivate::384-511          277      3.95%     85.14% # Bytes accessed per row activation
system.mem_ctrls.bytesPerActivate::512-639          136      1.94%     87.08% # Bytes accessed per row activation
system.mem_ctrls.bytesPerActivate::640-767           96      1.37%     88.45% # Bytes accessed per row activation
system.mem_ctrls.bytesPerActivate::768-895           74      1.06%     89.50% # Bytes accessed per row activation
system.mem_ctrls.bytesPerActivate::896-1023           64      0.91%     90.41% # Bytes accessed per row activation
system.mem_ctrls.bytesPerActivate::1024-1151          672      9.59%    100.00% # Bytes accessed per row activation
system.mem_ctrls.bytesPerActivate::total         7010                       # Bytes accessed per row activation
system.mem_ctrls.rdPerTurnAround::samples          326                       # Reads before turning the bus around for writes
system.mem_ctrls.rdPerTurnAround::mean     108.361963                       # Reads before turning the bus around for writes
system.mem_ctrls.rdPerTurnAround::stdev    937.124737                       # Reads before turning the bus around for writes
system.mem_ctrls.rdPerTurnAround::0-1023          324     99.39%     99.39% # Reads before turning the bus around for writes
system.mem_ctrls.rdPerTurnAround::1024-2047            1      0.31%     99.69% # Reads before turning the bus around for writes
system.mem_ctrls.rdPerTurnAround::16384-17407            1      0.31%    100.00% # Reads before turning the bus around for writes
system.mem_ctrls.rdPerTurnAround::total           326                       # Reads before turning the bus around for writes
system.mem_ctrls.wrPerTurnAround::samples          326                       # Writes before turning the bus around for reads
system.mem_ctrls.wrPerTurnAround::mean      18.622699                       # Writes before turning the bus around for reads
system.mem_ctrls.wrPerTurnAround::gmean     18.270145                       # Writes before turning the bus around for reads
system.mem_ctrls.wrPerTurnAround::stdev      3.876792                       # Writes before turning the bus around for reads
system.mem_ctrls.wrPerTurnAround::16              204     62.58%     62.58% # Writes before turning the bus around for reads
system.mem_ctrls.wrPerTurnAround::17                2      0.61%     63.19% # Writes before turning the bus around for reads
system.mem_ctrls.wrPerTurnAround::18                9      2.76%     65.95% # Writes before turning the bus around for reads
system.mem_ctrls.wrPerTurnAround::19                4      1.23%     67.18% # Writes before turning the bus around for reads
system.mem_ctrls.wrPerTurnAround::20                1      0.31%     67.48% # Writes before turning the bus around for reads
system.mem_ctrls.wrPerTurnAround::21               32      9.82%     77.30% # Writes before turning the bus around for reads
system.mem_ctrls.wrPerTurnAround::22               11      3.37%     80.67% # Writes before turning the bus around for reads
system.mem_ctrls.wrPerTurnAround::23                1      0.31%     80.98% # Writes before turning the bus around for reads
system.mem_ctrls.wrPerTurnAround::24               36     11.04%     92.02% # Writes before turning the bus around for reads
system.mem_ctrls.wrPerTurnAround::25                6      1.84%     93.87% # Writes before turning the bus around for reads
system.mem_ctrls.wrPerTurnAround::26                1      0.31%     94.17% # Writes before turning the bus around for reads
system.mem_ctrls.wrPerTurnAround::27                1      0.31%     94.48% # Writes before turning the bus around for reads
system.mem_ctrls.wrPerTurnAround::28               15      4.60%     99.08% # Writes before turning the bus around for reads
system.mem_ctrls.wrPerTurnAround::29                1      0.31%     99.39% # Writes before turning the bus around for reads
system.mem_ctrls.wrPerTurnAround::30                1      0.31%     99.69% # Writes before turning the bus around for reads
system.mem_ctrls.wrPerTurnAround::32                1      0.31%    100.00% # Writes before turning the bus around for reads
system.mem_ctrls.wrPerTurnAround::total           326                       # Writes before turning the bus around for reads
system.mem_ctrls.totQLat                    180243498                       # Total ticks spent queuing
system.mem_ctrls.totMemAccLat               546093498                       # Total ticks spent from burst creation until serviced by the DRAM
system.mem_ctrls.totBusLat                   97560000                       # Total ticks spent in databus transfers
system.mem_ctrls.avgQLat                      9237.57                       # Average queueing delay per DRAM burst
system.mem_ctrls.avgBusLat                    5000.00                       # Average bus latency per DRAM burst
system.mem_ctrls.avgMemAccLat                27987.57                       # Average memory access latency per DRAM burst
system.mem_ctrls.avgRdBW                         0.35                       # Average DRAM read bandwidth in MiByte/s
system.mem_ctrls.avgWrBW                         0.11                       # Average achieved write bandwidth in MiByte/s
system.mem_ctrls.avgRdBWSys                      0.35                       # Average system read bandwidth in MiByte/s
system.mem_ctrls.avgWrBWSys                      0.11                       # Average system write bandwidth in MiByte/s
system.mem_ctrls.peakBW                      12800.00                       # Theoretical peak bandwidth in MiByte/s
system.mem_ctrls.busUtil                         0.00                       # Data bus utilization in percentage
system.mem_ctrls.busUtilRead                     0.00                       # Data bus utilization in percentage for reads
system.mem_ctrls.busUtilWrite                    0.00                       # Data bus utilization in percentage for writes
system.mem_ctrls.avgRdQLen                       1.00                       # Average read queue length when enqueuing
system.mem_ctrls.avgWrQLen                      26.28                       # Average write queue length when enqueuing
system.mem_ctrls.readRowHits                    14366                       # Number of row buffer hits during reads
system.mem_ctrls.writeRowHits                    4207                       # Number of row buffer hits during writes
system.mem_ctrls.readRowHitRate                 73.63                       # Row buffer hit rate for reads
system.mem_ctrls.writeRowHitRate                69.13                       # Row buffer hit rate for writes
system.mem_ctrls.avgGap                  140428238.12                       # Average gap between requests
system.mem_ctrls.pageHitRate                    72.56                       # Row buffer hit rate, read and write combined
system.mem_ctrls_0.actEnergy                 43515360                       # Energy for activate commands per rank (pJ)
system.mem_ctrls_0.preEnergy                 23743500                       # Energy for precharge commands per rank (pJ)
system.mem_ctrls_0.readEnergy               142630800                       # Energy for read commands per rank (pJ)
system.mem_ctrls_0.writeEnergy               22608720                       # Energy for write commands per rank (pJ)
system.mem_ctrls_0.refreshEnergy         235466331360                       # Energy for refresh commands per rank (pJ)
system.mem_ctrls_0.actBackEnergy          82143986490                       # Energy for active background per rank (pJ)
system.mem_ctrls_0.preBackEnergy         2090992308000                       # Energy for precharge background per rank (pJ)
system.mem_ctrls_0.totalEnergy           2408835124230                       # Total energy per rank (pJ)
system.mem_ctrls_0.averagePower            668.177860                       # Core power per rank (mW)
system.mem_ctrls_0.memoryStateTime::IDLE 3477289786500                       # Time in different power states
system.mem_ctrls_0.memoryStateTime::REF  120264040000                       # Time in different power states
system.mem_ctrls_0.memoryStateTime::PRE_PDN            0                       # Time in different power states
system.mem_ctrls_0.memoryStateTime::ACT    4010335500                       # Time in different power states
system.mem_ctrls_0.memoryStateTime::ACT_PDN            0                       # Time in different power states
system.mem_ctrls_1.actEnergy                 39682440                       # Energy for activate commands per rank (pJ)
system.mem_ctrls_1.preEnergy                 21652125                       # Energy for precharge commands per rank (pJ)
system.mem_ctrls_1.readEnergy               133036800                       # Energy for read commands per rank (pJ)
system.mem_ctrls_1.writeEnergy               16731360                       # Energy for write commands per rank (pJ)
system.mem_ctrls_1.refreshEnergy         235466331360                       # Energy for refresh commands per rank (pJ)
system.mem_ctrls_1.actBackEnergy          82005143895                       # Energy for active background per rank (pJ)
system.mem_ctrls_1.preBackEnergy         2091114091500                       # Energy for precharge background per rank (pJ)
system.mem_ctrls_1.totalEnergy           2408796669480                       # Total energy per rank (pJ)
system.mem_ctrls_1.averagePower            668.167195                       # Core power per rank (mW)
system.mem_ctrls_1.memoryStateTime::IDLE 3477397865000                       # Time in different power states
system.mem_ctrls_1.memoryStateTime::REF  120264040000                       # Time in different power states
system.mem_ctrls_1.memoryStateTime::PRE_PDN            0                       # Time in different power states
system.mem_ctrls_1.memoryStateTime::ACT    3899163750                       # Time in different power states
system.mem_ctrls_1.memoryStateTime::ACT_PDN            0                       # Time in different power states
system.cpu_voltage_domain.voltage                   1                       # Voltage in Volts
system.cpu_clk_domain.clock                       500                       # Clock period in ticks
system.cpu0.apic_clk_domain.clock                8000                       # Clock period in ticks
system.cpu0.numCycles                      7198640668                       # number of cpu cycles simulated
system.cpu0.numWorkItemsStarted                     0                       # number of work items this cpu started
system.cpu0.numWorkItemsCompleted                   0                       # number of work items this cpu completed
system.cpu0.kern.inst.arm                           0                       # number of arm instructions executed
system.cpu0.kern.inst.quiesce                       0                       # number of quiesce instructions executed
system.cpu0.committedInsts                    2935266                       # Number of instructions committed
system.cpu0.committedOps                      6381845                       # Number of ops (including micro ops) committed
system.cpu0.num_int_alu_accesses              6245929                       # Number of integer alu accesses
system.cpu0.num_fp_alu_accesses                     0                       # Number of float alu accesses
system.cpu0.num_func_calls                     188067                       # number of times a function call or return occured
system.cpu0.num_conditional_control_insts       425716                       # number of instructions that are conditional controls
system.cpu0.num_int_insts                     6245929                       # number of integer instructions
system.cpu0.num_fp_insts                            0                       # number of float instructions
system.cpu0.num_int_register_reads           12672103                       # number of times the integer registers were read
system.cpu0.num_int_register_writes           5172000                       # number of times the integer registers were written
system.cpu0.num_fp_register_reads                   0                       # number of times the floating registers were read
system.cpu0.num_fp_register_writes                  0                       # number of times the floating registers were written
system.cpu0.num_cc_register_reads             3532759                       # number of times the CC registers were read
system.cpu0.num_cc_register_writes            1921363                       # number of times the CC registers were written
system.cpu0.num_mem_refs                      1502463                       # number of memory refs
system.cpu0.num_load_insts                     929444                       # Number of load instructions
system.cpu0.num_store_insts                    573019                       # Number of store instructions
system.cpu0.num_idle_cycles              7186359771.254355                       # Number of idle cycles
system.cpu0.num_busy_cycles              12280896.745645                       # Number of busy cycles
system.cpu0.not_idle_fraction                0.001706                       # Percentage of non-idle cycles
system.cpu0.idle_fraction                    0.998294                       # Percentage of idle cycles
system.cpu0.Branches                           670408                       # Number of branches fetched
system.cpu0.op_class::No_OpClass               108535      1.70%      1.70% # Class of executed instruction
system.cpu0.op_class::IntAlu                  4722800     74.00%     75.70% # Class of executed instruction
system.cpu0.op_class::IntMult                   12205      0.19%     75.90% # Class of executed instruction
system.cpu0.op_class::IntDiv                    35848      0.56%     76.46% # Class of executed instruction
system.cpu0.op_class::FloatAdd                      0      0.00%     76.46% # Class of executed instruction
system.cpu0.op_class::FloatCmp                      0      0.00%     76.46% # Class of executed instruction
system.cpu0.op_class::FloatCvt                      0      0.00%     76.46% # Class of executed instruction
system.cpu0.op_class::FloatMult                     0      0.00%     76.46% # Class of executed instruction
system.cpu0.op_class::FloatDiv                      0      0.00%     76.46% # Class of executed instruction
system.cpu0.op_class::FloatSqrt                     0      0.00%     76.46% # Class of executed instruction
system.cpu0.op_class::SimdAdd                       0      0.00%     76.46% # Class of executed instruction
system.cpu0.op_class::SimdAddAcc                    0      0.00%     76.46% # Class of executed instruction
system.cpu0.op_class::SimdAlu                       0      0.00%     76.46% # Class of executed instruction
system.cpu0.op_class::SimdCmp                       0      0.00%     76.46% # Class of executed instruction
system.cpu0.op_class::SimdCvt                       0      0.00%     76.46% # Class of executed instruction
system.cpu0.op_class::SimdMisc                      0      0.00%     76.46% # Class of executed instruction
system.cpu0.op_class::SimdMult                      0      0.00%     76.46% # Class of executed instruction
system.cpu0.op_class::SimdMultAcc                   0      0.00%     76.46% # Class of executed instruction
system.cpu0.op_class::SimdShift                     0      0.00%     76.46% # Class of executed instruction
system.cpu0.op_class::SimdShiftAcc                  0      0.00%     76.46% # Class of executed instruction
system.cpu0.op_class::SimdSqrt                      0      0.00%     76.46% # Class of executed instruction
system.cpu0.op_class::SimdFloatAdd                  0      0.00%     76.46% # Class of executed instruction
system.cpu0.op_class::SimdFloatAlu                  0      0.00%     76.46% # Class of executed instruction
system.cpu0.op_class::SimdFloatCmp                  0      0.00%     76.46% # Class of executed instruction
system.cpu0.op_class::SimdFloatCvt                  0      0.00%     76.46% # Class of executed instruction
system.cpu0.op_class::SimdFloatDiv                  0      0.00%     76.46% # Class of executed instruction
system.cpu0.op_class::SimdFloatMisc                 0      0.00%     76.46% # Class of executed instruction
system.cpu0.op_class::SimdFloatMult                 0      0.00%     76.46% # Class of executed instruction
system.cpu0.op_class::SimdFloatMultAcc              0      0.00%     76.46% # Class of executed instruction
system.cpu0.op_class::SimdFloatSqrt                 0      0.00%     76.46% # Class of executed instruction
system.cpu0.op_class::MemRead                  929444     14.56%     91.02% # Class of executed instruction
system.cpu0.op_class::MemWrite                 573019      8.98%    100.00% # Class of executed instruction
system.cpu0.op_class::IprAccess                     0      0.00%    100.00% # Class of executed instruction
system.cpu0.op_class::InstPrefetch                  0      0.00%    100.00% # Class of executed instruction
system.cpu0.op_class::total                   6381851                       # Class of executed instruction
system.cpu1.apic_clk_domain.clock                8000                       # Clock period in ticks
system.cpu1.numCycles                      7206447450                       # number of cpu cycles simulated
system.cpu1.numWorkItemsStarted                     0                       # number of work items this cpu started
system.cpu1.numWorkItemsCompleted                   0                       # number of work items this cpu completed
system.cpu1.kern.inst.arm                           0                       # number of arm instructions executed
system.cpu1.kern.inst.quiesce                       0                       # number of quiesce instructions executed
system.cpu1.committedInsts                    3288997                       # Number of instructions committed
system.cpu1.committedOps                      6836001                       # Number of ops (including micro ops) committed
system.cpu1.num_int_alu_accesses              6702381                       # Number of integer alu accesses
system.cpu1.num_fp_alu_accesses                  1952                       # Number of float alu accesses
system.cpu1.num_func_calls                     175509                       # number of times a function call or return occured
system.cpu1.num_conditional_control_insts       504183                       # number of instructions that are conditional controls
system.cpu1.num_int_insts                     6702381                       # number of integer instructions
system.cpu1.num_fp_insts                         1952                       # number of float instructions
system.cpu1.num_int_register_reads           13605527                       # number of times the integer registers were read
system.cpu1.num_int_register_writes           5528317                       # number of times the integer registers were written
system.cpu1.num_fp_register_reads                3276                       # number of times the floating registers were read
system.cpu1.num_fp_register_writes               1552                       # number of times the floating registers were written
system.cpu1.num_cc_register_reads             3849151                       # number of times the CC registers were read
system.cpu1.num_cc_register_writes            2103582                       # number of times the CC registers were written
system.cpu1.num_mem_refs                      1609914                       # number of memory refs
system.cpu1.num_load_insts                     999201                       # Number of load instructions
system.cpu1.num_store_insts                    610713                       # Number of store instructions
system.cpu1.num_idle_cycles              7192346875.355578                       # Number of idle cycles
system.cpu1.num_busy_cycles              14100574.644422                       # Number of busy cycles
system.cpu1.not_idle_fraction                0.001957                       # Percentage of non-idle cycles
system.cpu1.idle_fraction                    0.998043                       # Percentage of idle cycles
system.cpu1.Branches                           738667                       # Number of branches fetched
system.cpu1.op_class::No_OpClass               106583      1.56%      1.56% # Class of executed instruction
system.cpu1.op_class::IntAlu                  5065925     74.11%     75.66% # Class of executed instruction
system.cpu1.op_class::IntMult                   15054      0.22%     75.88% # Class of executed instruction
system.cpu1.op_class::IntDiv                    37158      0.54%     76.43% # Class of executed instruction
system.cpu1.op_class::FloatAdd                   1456      0.02%     76.45% # Class of executed instruction
system.cpu1.op_class::FloatCmp                      0      0.00%     76.45% # Class of executed instruction
system.cpu1.op_class::FloatCvt                      0      0.00%     76.45% # Class of executed instruction
system.cpu1.op_class::FloatMult                     0      0.00%     76.45% # Class of executed instruction
system.cpu1.op_class::FloatDiv                      0      0.00%     76.45% # Class of executed instruction
system.cpu1.op_class::FloatSqrt                     0      0.00%     76.45% # Class of executed instruction
system.cpu1.op_class::SimdAdd                       0      0.00%     76.45% # Class of executed instruction
system.cpu1.op_class::SimdAddAcc                    0      0.00%     76.45% # Class of executed instruction
system.cpu1.op_class::SimdAlu                       0      0.00%     76.45% # Class of executed instruction
system.cpu1.op_class::SimdCmp                       0      0.00%     76.45% # Class of executed instruction
system.cpu1.op_class::SimdCvt                       0      0.00%     76.45% # Class of executed instruction
system.cpu1.op_class::SimdMisc                      0      0.00%     76.45% # Class of executed instruction
system.cpu1.op_class::SimdMult                      0      0.00%     76.45% # Class of executed instruction
system.cpu1.op_class::SimdMultAcc                   0      0.00%     76.45% # Class of executed instruction
system.cpu1.op_class::SimdShift                     0      0.00%     76.45% # Class of executed instruction
system.cpu1.op_class::SimdShiftAcc                  0      0.00%     76.45% # Class of executed instruction
system.cpu1.op_class::SimdSqrt                      0      0.00%     76.45% # Class of executed instruction
system.cpu1.op_class::SimdFloatAdd                  0      0.00%     76.45% # Class of executed instruction
system.cpu1.op_class::SimdFloatAlu                  0      0.00%     76.45% # Class of executed instruction
system.cpu1.op_class::SimdFloatCmp                  0      0.00%     76.45% # Class of executed instruction
system.cpu1.op_class::SimdFloatCvt                  0      0.00%     76.45% # Class of executed instruction
system.cpu1.op_class::SimdFloatDiv                  0      0.00%     76.45% # Class of executed instruction
system.cpu1.op_class::SimdFloatMisc                 0      0.00%     76.45% # Class of executed instruction
system.cpu1.op_class::SimdFloatMult                 0      0.00%     76.45% # Class of executed instruction
system.cpu1.op_class::SimdFloatMultAcc              0      0.00%     76.45% # Class of executed instruction
system.cpu1.op_class::SimdFloatSqrt                 0      0.00%     76.45% # Class of executed instruction
system.cpu1.op_class::MemRead                  999201     14.62%     91.07% # Class of executed instruction
system.cpu1.op_class::MemWrite                 610713      8.93%    100.00% # Class of executed instruction
system.cpu1.op_class::IprAccess                     0      0.00%    100.00% # Class of executed instruction
system.cpu1.op_class::InstPrefetch                  0      0.00%    100.00% # Class of executed instruction
system.cpu1.op_class::total                   6836090                       # Class of executed instruction
system.cpu2.apic_clk_domain.clock                8000                       # Clock period in ticks
system.cpu2.numCycles                      7204439630                       # number of cpu cycles simulated
system.cpu2.numWorkItemsStarted                     0                       # number of work items this cpu started
system.cpu2.numWorkItemsCompleted                   0                       # number of work items this cpu completed
system.cpu2.kern.inst.arm                           0                       # number of arm instructions executed
system.cpu2.kern.inst.quiesce                       0                       # number of quiesce instructions executed
system.cpu2.committedInsts                   19128410                       # Number of instructions committed
system.cpu2.committedOps                     33710953                       # Number of ops (including micro ops) committed
system.cpu2.num_int_alu_accesses             28327335                       # Number of integer alu accesses
system.cpu2.num_fp_alu_accesses               8399336                       # Number of float alu accesses
system.cpu2.num_func_calls                     575599                       # number of times a function call or return occured
system.cpu2.num_conditional_control_insts      2016423                       # number of instructions that are conditional controls
system.cpu2.num_int_insts                    28327335                       # number of integer instructions
system.cpu2.num_fp_insts                      8399336                       # number of float instructions
system.cpu2.num_int_register_reads           54608070                       # number of times the integer registers were read
system.cpu2.num_int_register_writes          21518394                       # number of times the integer registers were written
system.cpu2.num_fp_register_reads            14064329                       # number of times the floating registers were read
system.cpu2.num_fp_register_writes            7474281                       # number of times the floating registers were written
system.cpu2.num_cc_register_reads            13717117                       # number of times the CC registers were read
system.cpu2.num_cc_register_writes           10153010                       # number of times the CC registers were written
system.cpu2.num_mem_refs                      7548985                       # number of memory refs
system.cpu2.num_load_insts                    5636752                       # Number of load instructions
system.cpu2.num_store_insts                   1912233                       # Number of store instructions
system.cpu2.num_idle_cycles              7133807485.736081                       # Number of idle cycles
system.cpu2.num_busy_cycles              70632144.263919                       # Number of busy cycles
system.cpu2.not_idle_fraction                0.009804                       # Percentage of non-idle cycles
system.cpu2.idle_fraction                    0.990196                       # Percentage of idle cycles
system.cpu2.Branches                          2740180                       # Number of branches fetched
system.cpu2.op_class::No_OpClass               114171      0.34%      0.34% # Class of executed instruction
system.cpu2.op_class::IntAlu                 22178759     65.79%     66.13% # Class of executed instruction
system.cpu2.op_class::IntMult                  212708      0.63%     66.76% # Class of executed instruction
system.cpu2.op_class::IntDiv                    38167      0.11%     66.87% # Class of executed instruction
system.cpu2.op_class::FloatAdd                3618219     10.73%     77.61% # Class of executed instruction
system.cpu2.op_class::FloatCmp                      0      0.00%     77.61% # Class of executed instruction
system.cpu2.op_class::FloatCvt                      0      0.00%     77.61% # Class of executed instruction
system.cpu2.op_class::FloatMult                     0      0.00%     77.61% # Class of executed instruction
system.cpu2.op_class::FloatDiv                      0      0.00%     77.61% # Class of executed instruction
system.cpu2.op_class::FloatSqrt                     0      0.00%     77.61% # Class of executed instruction
system.cpu2.op_class::SimdAdd                       0      0.00%     77.61% # Class of executed instruction
system.cpu2.op_class::SimdAddAcc                    0      0.00%     77.61% # Class of executed instruction
system.cpu2.op_class::SimdAlu                       0      0.00%     77.61% # Class of executed instruction
system.cpu2.op_class::SimdCmp                       0      0.00%     77.61% # Class of executed instruction
system.cpu2.op_class::SimdCvt                       0      0.00%     77.61% # Class of executed instruction
system.cpu2.op_class::SimdMisc                      0      0.00%     77.61% # Class of executed instruction
system.cpu2.op_class::SimdMult                      0      0.00%     77.61% # Class of executed instruction
system.cpu2.op_class::SimdMultAcc                   0      0.00%     77.61% # Class of executed instruction
system.cpu2.op_class::SimdShift                     0      0.00%     77.61% # Class of executed instruction
system.cpu2.op_class::SimdShiftAcc                  0      0.00%     77.61% # Class of executed instruction
system.cpu2.op_class::SimdSqrt                      0      0.00%     77.61% # Class of executed instruction
system.cpu2.op_class::SimdFloatAdd                  0      0.00%     77.61% # Class of executed instruction
system.cpu2.op_class::SimdFloatAlu                  0      0.00%     77.61% # Class of executed instruction
system.cpu2.op_class::SimdFloatCmp                  0      0.00%     77.61% # Class of executed instruction
system.cpu2.op_class::SimdFloatCvt                  0      0.00%     77.61% # Class of executed instruction
system.cpu2.op_class::SimdFloatDiv                  0      0.00%     77.61% # Class of executed instruction
system.cpu2.op_class::SimdFloatMisc                 0      0.00%     77.61% # Class of executed instruction
system.cpu2.op_class::SimdFloatMult                 0      0.00%     77.61% # Class of executed instruction
system.cpu2.op_class::SimdFloatMultAcc              0      0.00%     77.61% # Class of executed instruction
system.cpu2.op_class::SimdFloatSqrt                 0      0.00%     77.61% # Class of executed instruction
system.cpu2.op_class::MemRead                 5636752     16.72%     94.33% # Class of executed instruction
system.cpu2.op_class::MemWrite                1912233      5.67%    100.00% # Class of executed instruction
system.cpu2.op_class::IprAccess                     0      0.00%    100.00% # Class of executed instruction
system.cpu2.op_class::InstPrefetch                  0      0.00%    100.00% # Class of executed instruction
system.cpu2.op_class::total                  33711009                       # Class of executed instruction
system.cpu3.apic_clk_domain.clock                8000                       # Clock period in ticks
system.cpu3.numCycles                      7204639544                       # number of cpu cycles simulated
system.cpu3.numWorkItemsStarted                     0                       # number of work items this cpu started
system.cpu3.numWorkItemsCompleted                   0                       # number of work items this cpu completed
system.cpu3.kern.inst.arm                           0                       # number of arm instructions executed
system.cpu3.kern.inst.quiesce                       0                       # number of quiesce instructions executed
system.cpu3.committedInsts                 1994005538                       # Number of instructions committed
system.cpu3.committedOps                   3391941855                       # Number of ops (including micro ops) committed
system.cpu3.num_int_alu_accesses           2756603723                       # Number of integer alu accesses
system.cpu3.num_fp_alu_accesses            1010088517                       # Number of float alu accesses
system.cpu3.num_func_calls                   49906779                       # number of times a function call or return occured
system.cpu3.num_conditional_control_insts    199771476                       # number of instructions that are conditional controls
system.cpu3.num_int_insts                  2756603723                       # number of integer instructions
system.cpu3.num_fp_insts                   1010088517                       # number of float instructions
system.cpu3.num_int_register_reads         5216369786                       # number of times the integer registers were read
system.cpu3.num_int_register_writes        2051820893                       # number of times the integer registers were written
system.cpu3.num_fp_register_reads          1701898740                       # number of times the floating registers were read
system.cpu3.num_fp_register_writes          899765659                       # number of times the floating registers were written
system.cpu3.num_cc_register_reads          1288181554                       # number of times the CC registers were read
system.cpu3.num_cc_register_writes         1039068092                       # number of times the CC registers were written
system.cpu3.num_mem_refs                    738017001                       # number of memory refs
system.cpu3.num_load_insts                  571673507                       # Number of load instructions
system.cpu3.num_store_insts                 166343494                       # Number of store instructions
system.cpu3.num_idle_cycles              64079285.329381                       # Number of idle cycles
system.cpu3.num_busy_cycles              7140560258.670619                       # Number of busy cycles
system.cpu3.not_idle_fraction                0.991106                       # Percentage of non-idle cycles
system.cpu3.idle_fraction                    0.008894                       # Percentage of idle cycles
system.cpu3.Branches                        261082373                       # Number of branches fetched
system.cpu3.op_class::No_OpClass              1505710      0.04%      0.04% # Class of executed instruction
system.cpu3.op_class::IntAlu               2188549465     64.52%     64.57% # Class of executed instruction
system.cpu3.op_class::IntMult                24039694      0.71%     65.28% # Class of executed instruction
system.cpu3.op_class::IntDiv                   210773      0.01%     65.28% # Class of executed instruction
system.cpu3.op_class::FloatAdd              439619365     12.96%     78.24% # Class of executed instruction
system.cpu3.op_class::FloatCmp                      0      0.00%     78.24% # Class of executed instruction
system.cpu3.op_class::FloatCvt                      0      0.00%     78.24% # Class of executed instruction
system.cpu3.op_class::FloatMult                     0      0.00%     78.24% # Class of executed instruction
system.cpu3.op_class::FloatDiv                      0      0.00%     78.24% # Class of executed instruction
system.cpu3.op_class::FloatSqrt                     0      0.00%     78.24% # Class of executed instruction
system.cpu3.op_class::SimdAdd                       0      0.00%     78.24% # Class of executed instruction
system.cpu3.op_class::SimdAddAcc                    0      0.00%     78.24% # Class of executed instruction
system.cpu3.op_class::SimdAlu                       0      0.00%     78.24% # Class of executed instruction
system.cpu3.op_class::SimdCmp                       0      0.00%     78.24% # Class of executed instruction
system.cpu3.op_class::SimdCvt                       0      0.00%     78.24% # Class of executed instruction
system.cpu3.op_class::SimdMisc                      0      0.00%     78.24% # Class of executed instruction
system.cpu3.op_class::SimdMult                      0      0.00%     78.24% # Class of executed instruction
system.cpu3.op_class::SimdMultAcc                   0      0.00%     78.24% # Class of executed instruction
system.cpu3.op_class::SimdShift                     0      0.00%     78.24% # Class of executed instruction
system.cpu3.op_class::SimdShiftAcc                  0      0.00%     78.24% # Class of executed instruction
system.cpu3.op_class::SimdSqrt                      0      0.00%     78.24% # Class of executed instruction
system.cpu3.op_class::SimdFloatAdd                  0      0.00%     78.24% # Class of executed instruction
system.cpu3.op_class::SimdFloatAlu                  0      0.00%     78.24% # Class of executed instruction
system.cpu3.op_class::SimdFloatCmp                  0      0.00%     78.24% # Class of executed instruction
system.cpu3.op_class::SimdFloatCvt                  0      0.00%     78.24% # Class of executed instruction
system.cpu3.op_class::SimdFloatDiv                  0      0.00%     78.24% # Class of executed instruction
system.cpu3.op_class::SimdFloatMisc                 0      0.00%     78.24% # Class of executed instruction
system.cpu3.op_class::SimdFloatMult                 0      0.00%     78.24% # Class of executed instruction
system.cpu3.op_class::SimdFloatMultAcc              0      0.00%     78.24% # Class of executed instruction
system.cpu3.op_class::SimdFloatSqrt                 0      0.00%     78.24% # Class of executed instruction
system.cpu3.op_class::MemRead               571673507     16.85%     95.10% # Class of executed instruction
system.cpu3.op_class::MemWrite              166343494      4.90%    100.00% # Class of executed instruction
system.cpu3.op_class::IprAccess                     0      0.00%    100.00% # Class of executed instruction
system.cpu3.op_class::InstPrefetch                  0      0.00%    100.00% # Class of executed instruction
system.cpu3.op_class::total                3391942008                       # Class of executed instruction
system.iobus.trans_dist::ReadReq                  117                       # Transaction distribution
system.iobus.trans_dist::ReadResp                 117                       # Transaction distribution
system.iobus.trans_dist::WriteReq                3736                       # Transaction distribution
system.iobus.trans_dist::WriteResp               3736                       # Transaction distribution
system.iobus.trans_dist::MessageReq                19                       # Transaction distribution
system.iobus.trans_dist::MessageResp               19                       # Transaction distribution
system.iobus.pkt_count_system.pc.south_bridge.io_apic.int_master::system.ruby.l1_cntrl0.sequencer.pio-slave-port            4                       # Packet count per connected master and slave (bytes)
system.iobus.pkt_count_system.pc.south_bridge.io_apic.int_master::system.ruby.l1_cntrl1.sequencer.pio-slave-port            6                       # Packet count per connected master and slave (bytes)
system.iobus.pkt_count_system.pc.south_bridge.io_apic.int_master::system.ruby.l1_cntrl2.sequencer.pio-slave-port            4                       # Packet count per connected master and slave (bytes)
system.iobus.pkt_count_system.pc.south_bridge.io_apic.int_master::system.ruby.l1_cntrl3.sequencer.pio-slave-port            4                       # Packet count per connected master and slave (bytes)
system.iobus.pkt_count_system.pc.south_bridge.io_apic.int_master::total           18                       # Packet count per connected master and slave (bytes)
system.iobus.pkt_count_system.ruby.l1_cntrl0.sequencer.mem-master-port::system.pc.south_bridge.ide.pio           46                       # Packet count per connected master and slave (bytes)
system.iobus.pkt_count_system.ruby.l1_cntrl0.sequencer.mem-master-port::system.pc.south_bridge.io_apic.pio            6                       # Packet count per connected master and slave (bytes)
system.iobus.pkt_count_system.ruby.l1_cntrl0.sequencer.mem-master-port::system.pc.com_1.pio           22                       # Packet count per connected master and slave (bytes)
system.iobus.pkt_count_system.ruby.l1_cntrl0.sequencer.mem-master-port::system.ruby.l1_cntrl0.sequencer.pio-slave-port         1820                       # Packet count per connected master and slave (bytes)
system.iobus.pkt_count_system.ruby.l1_cntrl0.sequencer.mem-master-port::system.ruby.l1_cntrl1.sequencer.pio-slave-port            2                       # Packet count per connected master and slave (bytes)
system.iobus.pkt_count_system.ruby.l1_cntrl0.sequencer.mem-master-port::system.ruby.l1_cntrl2.sequencer.pio-slave-port            2                       # Packet count per connected master and slave (bytes)
system.iobus.pkt_count_system.ruby.l1_cntrl0.sequencer.mem-master-port::total         1898                       # Packet count per connected master and slave (bytes)
system.iobus.pkt_count_system.ruby.l1_cntrl1.sequencer.mem-master-port::system.pc.south_bridge.ide.pio           46                       # Packet count per connected master and slave (bytes)
system.iobus.pkt_count_system.ruby.l1_cntrl1.sequencer.mem-master-port::system.pc.south_bridge.io_apic.pio           14                       # Packet count per connected master and slave (bytes)
system.iobus.pkt_count_system.ruby.l1_cntrl1.sequencer.mem-master-port::system.pc.com_1.pio          162                       # Packet count per connected master and slave (bytes)
system.iobus.pkt_count_system.ruby.l1_cntrl1.sequencer.mem-master-port::system.ruby.l1_cntrl0.sequencer.pio-slave-port            2                       # Packet count per connected master and slave (bytes)
system.iobus.pkt_count_system.ruby.l1_cntrl1.sequencer.mem-master-port::system.ruby.l1_cntrl1.sequencer.pio-slave-port         1826                       # Packet count per connected master and slave (bytes)
system.iobus.pkt_count_system.ruby.l1_cntrl1.sequencer.mem-master-port::system.ruby.l1_cntrl2.sequencer.pio-slave-port            2                       # Packet count per connected master and slave (bytes)
system.iobus.pkt_count_system.ruby.l1_cntrl1.sequencer.mem-master-port::total         2052                       # Packet count per connected master and slave (bytes)
system.iobus.pkt_count_system.ruby.l1_cntrl2.sequencer.mem-master-port::system.pc.south_bridge.ide.pio           80                       # Packet count per connected master and slave (bytes)
system.iobus.pkt_count_system.ruby.l1_cntrl2.sequencer.mem-master-port::system.pc.south_bridge.io_apic.pio            8                       # Packet count per connected master and slave (bytes)
system.iobus.pkt_count_system.ruby.l1_cntrl2.sequencer.mem-master-port::system.ruby.l1_cntrl1.sequencer.pio-slave-port            2                       # Packet count per connected master and slave (bytes)
system.iobus.pkt_count_system.ruby.l1_cntrl2.sequencer.mem-master-port::system.ruby.l1_cntrl2.sequencer.pio-slave-port         1826                       # Packet count per connected master and slave (bytes)
system.iobus.pkt_count_system.ruby.l1_cntrl2.sequencer.mem-master-port::system.ruby.l1_cntrl3.sequencer.pio-slave-port            2                       # Packet count per connected master and slave (bytes)
system.iobus.pkt_count_system.ruby.l1_cntrl2.sequencer.mem-master-port::total         1918                       # Packet count per connected master and slave (bytes)
system.iobus.pkt_count_system.ruby.l1_cntrl3.sequencer.mem-master-port::system.pc.south_bridge.ide.pio           12                       # Packet count per connected master and slave (bytes)
system.iobus.pkt_count_system.ruby.l1_cntrl3.sequencer.mem-master-port::system.pc.south_bridge.io_apic.pio            8                       # Packet count per connected master and slave (bytes)
system.iobus.pkt_count_system.ruby.l1_cntrl3.sequencer.mem-master-port::system.ruby.l1_cntrl0.sequencer.pio-slave-port            2                       # Packet count per connected master and slave (bytes)
system.iobus.pkt_count_system.ruby.l1_cntrl3.sequencer.mem-master-port::system.ruby.l1_cntrl1.sequencer.pio-slave-port            2                       # Packet count per connected master and slave (bytes)
system.iobus.pkt_count_system.ruby.l1_cntrl3.sequencer.mem-master-port::system.ruby.l1_cntrl2.sequencer.pio-slave-port            4                       # Packet count per connected master and slave (bytes)
system.iobus.pkt_count_system.ruby.l1_cntrl3.sequencer.mem-master-port::system.ruby.l1_cntrl3.sequencer.pio-slave-port         1830                       # Packet count per connected master and slave (bytes)
system.iobus.pkt_count_system.ruby.l1_cntrl3.sequencer.mem-master-port::total         1858                       # Packet count per connected master and slave (bytes)
system.iobus.pkt_count::total                    7744                       # Packet count per connected master and slave (bytes)
system.iobus.pkt_size_system.pc.south_bridge.io_apic.int_master::system.ruby.l1_cntrl0.sequencer.pio-slave-port            8                       # Cumulative packet size per connected master and slave (bytes)
system.iobus.pkt_size_system.pc.south_bridge.io_apic.int_master::system.ruby.l1_cntrl1.sequencer.pio-slave-port           12                       # Cumulative packet size per connected master and slave (bytes)
system.iobus.pkt_size_system.pc.south_bridge.io_apic.int_master::system.ruby.l1_cntrl2.sequencer.pio-slave-port            8                       # Cumulative packet size per connected master and slave (bytes)
system.iobus.pkt_size_system.pc.south_bridge.io_apic.int_master::system.ruby.l1_cntrl3.sequencer.pio-slave-port            8                       # Cumulative packet size per connected master and slave (bytes)
system.iobus.pkt_size_system.pc.south_bridge.io_apic.int_master::total           36                       # Cumulative packet size per connected master and slave (bytes)
system.iobus.pkt_size_system.ruby.l1_cntrl0.sequencer.mem-master-port::system.pc.south_bridge.ide.pio           26                       # Cumulative packet size per connected master and slave (bytes)
system.iobus.pkt_size_system.ruby.l1_cntrl0.sequencer.mem-master-port::system.pc.south_bridge.io_apic.pio           12                       # Cumulative packet size per connected master and slave (bytes)
system.iobus.pkt_size_system.ruby.l1_cntrl0.sequencer.mem-master-port::system.pc.com_1.pio           11                       # Cumulative packet size per connected master and slave (bytes)
system.iobus.pkt_size_system.ruby.l1_cntrl0.sequencer.mem-master-port::system.ruby.l1_cntrl0.sequencer.pio-slave-port         3640                       # Cumulative packet size per connected master and slave (bytes)
system.iobus.pkt_size_system.ruby.l1_cntrl0.sequencer.mem-master-port::system.ruby.l1_cntrl1.sequencer.pio-slave-port            4                       # Cumulative packet size per connected master and slave (bytes)
system.iobus.pkt_size_system.ruby.l1_cntrl0.sequencer.mem-master-port::system.ruby.l1_cntrl2.sequencer.pio-slave-port            4                       # Cumulative packet size per connected master and slave (bytes)
system.iobus.pkt_size_system.ruby.l1_cntrl0.sequencer.mem-master-port::total         3697                       # Cumulative packet size per connected master and slave (bytes)
system.iobus.pkt_size_system.ruby.l1_cntrl1.sequencer.mem-master-port::system.pc.south_bridge.ide.pio           26                       # Cumulative packet size per connected master and slave (bytes)
system.iobus.pkt_size_system.ruby.l1_cntrl1.sequencer.mem-master-port::system.pc.south_bridge.io_apic.pio           28                       # Cumulative packet size per connected master and slave (bytes)
system.iobus.pkt_size_system.ruby.l1_cntrl1.sequencer.mem-master-port::system.pc.com_1.pio           81                       # Cumulative packet size per connected master and slave (bytes)
system.iobus.pkt_size_system.ruby.l1_cntrl1.sequencer.mem-master-port::system.ruby.l1_cntrl0.sequencer.pio-slave-port            4                       # Cumulative packet size per connected master and slave (bytes)
system.iobus.pkt_size_system.ruby.l1_cntrl1.sequencer.mem-master-port::system.ruby.l1_cntrl1.sequencer.pio-slave-port         3652                       # Cumulative packet size per connected master and slave (bytes)
system.iobus.pkt_size_system.ruby.l1_cntrl1.sequencer.mem-master-port::system.ruby.l1_cntrl2.sequencer.pio-slave-port            4                       # Cumulative packet size per connected master and slave (bytes)
system.iobus.pkt_size_system.ruby.l1_cntrl1.sequencer.mem-master-port::total         3795                       # Cumulative packet size per connected master and slave (bytes)
system.iobus.pkt_size_system.ruby.l1_cntrl2.sequencer.mem-master-port::system.pc.south_bridge.ide.pio           46                       # Cumulative packet size per connected master and slave (bytes)
system.iobus.pkt_size_system.ruby.l1_cntrl2.sequencer.mem-master-port::system.pc.south_bridge.io_apic.pio           16                       # Cumulative packet size per connected master and slave (bytes)
system.iobus.pkt_size_system.ruby.l1_cntrl2.sequencer.mem-master-port::system.ruby.l1_cntrl1.sequencer.pio-slave-port            4                       # Cumulative packet size per connected master and slave (bytes)
system.iobus.pkt_size_system.ruby.l1_cntrl2.sequencer.mem-master-port::system.ruby.l1_cntrl2.sequencer.pio-slave-port         3652                       # Cumulative packet size per connected master and slave (bytes)
system.iobus.pkt_size_system.ruby.l1_cntrl2.sequencer.mem-master-port::system.ruby.l1_cntrl3.sequencer.pio-slave-port            4                       # Cumulative packet size per connected master and slave (bytes)
system.iobus.pkt_size_system.ruby.l1_cntrl2.sequencer.mem-master-port::total         3722                       # Cumulative packet size per connected master and slave (bytes)
system.iobus.pkt_size_system.ruby.l1_cntrl3.sequencer.mem-master-port::system.pc.south_bridge.ide.pio            6                       # Cumulative packet size per connected master and slave (bytes)
system.iobus.pkt_size_system.ruby.l1_cntrl3.sequencer.mem-master-port::system.pc.south_bridge.io_apic.pio           16                       # Cumulative packet size per connected master and slave (bytes)
system.iobus.pkt_size_system.ruby.l1_cntrl3.sequencer.mem-master-port::system.ruby.l1_cntrl0.sequencer.pio-slave-port            4                       # Cumulative packet size per connected master and slave (bytes)
system.iobus.pkt_size_system.ruby.l1_cntrl3.sequencer.mem-master-port::system.ruby.l1_cntrl1.sequencer.pio-slave-port            4                       # Cumulative packet size per connected master and slave (bytes)
system.iobus.pkt_size_system.ruby.l1_cntrl3.sequencer.mem-master-port::system.ruby.l1_cntrl2.sequencer.pio-slave-port            8                       # Cumulative packet size per connected master and slave (bytes)
system.iobus.pkt_size_system.ruby.l1_cntrl3.sequencer.mem-master-port::system.ruby.l1_cntrl3.sequencer.pio-slave-port         3660                       # Cumulative packet size per connected master and slave (bytes)
system.iobus.pkt_size_system.ruby.l1_cntrl3.sequencer.mem-master-port::total         3698                       # Cumulative packet size per connected master and slave (bytes)
system.iobus.pkt_size::total                    14948                       # Cumulative packet size per connected master and slave (bytes)
system.iobus.reqLayer2.occupancy               163000                       # Layer occupancy (ticks)
system.iobus.reqLayer2.utilization                0.0                       # Layer utilization (%)
system.iobus.reqLayer8.occupancy                30496                       # Layer occupancy (ticks)
system.iobus.reqLayer8.utilization                0.0                       # Layer utilization (%)
system.iobus.reqLayer12.occupancy              121000                       # Layer occupancy (ticks)
system.iobus.reqLayer12.utilization               0.0                       # Layer utilization (%)
system.iobus.reqLayer17.occupancy             2277498                       # Layer occupancy (ticks)
system.iobus.reqLayer17.utilization               0.0                       # Layer utilization (%)
system.iobus.reqLayer18.occupancy             2288998                       # Layer occupancy (ticks)
system.iobus.reqLayer18.utilization               0.0                       # Layer utilization (%)
system.iobus.reqLayer19.occupancy             2290994                       # Layer occupancy (ticks)
system.iobus.reqLayer19.utilization               0.0                       # Layer utilization (%)
system.iobus.reqLayer20.occupancy             1966982                       # Layer occupancy (ticks)
system.iobus.reqLayer20.utilization               0.0                       # Layer utilization (%)
system.iobus.respLayer0.occupancy               12496                       # Layer occupancy (ticks)
system.iobus.respLayer0.utilization               0.0                       # Layer utilization (%)
system.iobus.respLayer2.occupancy             1423000                       # Layer occupancy (ticks)
system.iobus.respLayer2.utilization               0.0                       # Layer utilization (%)
system.iobus.respLayer4.occupancy             1554500                       # Layer occupancy (ticks)
system.iobus.respLayer4.utilization               0.0                       # Layer utilization (%)
system.iobus.respLayer6.occupancy             1431500                       # Layer occupancy (ticks)
system.iobus.respLayer6.utilization               0.0                       # Layer utilization (%)
system.iobus.respLayer8.occupancy             1396500                       # Layer occupancy (ticks)
system.iobus.respLayer8.utilization               0.0                       # Layer utilization (%)
system.pc.south_bridge.ide.disks.dma_read_full_pages            1                       # Number of full page size DMA reads (not PRD).
system.pc.south_bridge.ide.disks.dma_read_bytes         4096                       # Number of bytes transfered via DMA reads (not PRD).
system.pc.south_bridge.ide.disks.dma_read_txs            1                       # Number of DMA read transactions (not PRD).
system.pc.south_bridge.ide.disks.dma_write_full_pages           45                       # Number of full page size DMA writes.
system.pc.south_bridge.ide.disks.dma_write_bytes       184320                       # Number of bytes transfered via DMA writes.
system.pc.south_bridge.ide.disks.dma_write_txs           45                       # Number of DMA write transactions.
system.ruby.clk_domain.clock                      500                       # Clock period in ticks
system.ruby.delayHist::bucket_size                  4                       # delay histogram for all message
system.ruby.delayHist::max_bucket                  39                       # delay histogram for all message
system.ruby.delayHist::samples               11965716                       # delay histogram for all message
system.ruby.delayHist::mean                  0.693862                       # delay histogram for all message
system.ruby.delayHist::stdev                 2.250160                       # delay histogram for all message
system.ruby.delayHist                    |    10929872     91.34%     91.34% |         740      0.01%     91.35% |     1034972      8.65%    100.00% |          36      0.00%    100.00% |          76      0.00%    100.00% |           2      0.00%    100.00% |          14      0.00%    100.00% |           2      0.00%    100.00% |           1      0.00%    100.00% |           1      0.00%    100.00% # delay histogram for all message
system.ruby.delayHist::total                 11965716                       # delay histogram for all message
system.ruby.outstanding_req_hist_seqr::bucket_size            1                      
system.ruby.outstanding_req_hist_seqr::max_bucket            9                      
system.ruby.outstanding_req_hist_seqr::samples   3588745340                      
system.ruby.outstanding_req_hist_seqr::mean     1.000000                      
system.ruby.outstanding_req_hist_seqr::gmean     1.000000                      
system.ruby.outstanding_req_hist_seqr::stdev     0.000247                      
system.ruby.outstanding_req_hist_seqr    |           0      0.00%      0.00% |  3588745121    100.00%    100.00% |         219      0.00%    100.00% |           0      0.00%    100.00% |           0      0.00%    100.00% |           0      0.00%    100.00% |           0      0.00%    100.00% |           0      0.00%    100.00% |           0      0.00%    100.00% |           0      0.00%    100.00%
[...]
system.ruby.DMA_Controller.BUSY_WR.Ack   |        3008    100.00%    100.00% |           0      0.00%    100.00%
system.ruby.DMA_Controller.BUSY_WR.Ack::total         3008                      
system.ruby.L1Cache_Controller.Load      |     1398603      0.24%      0.24% |     1343811      0.23%      0.48% |     6048981      1.05%      1.53% |   566530743     98.47%    100.00%
system.ruby.L1Cache_Controller.Load::total    575322138                      
system.ruby.L1Cache_Controller.Ifetch    |     6672717      0.00%      0.00% |     6444761      0.00%      0.00% |    29489913      0.00%      0.00% |18446744072222615552    100.00%    100.00%
system.ruby.L1Cache_Controller.Ifetch::total 18446744072265222144                      
system.ruby.L1Cache_Controller.Store     |     1078000      0.61%      0.61% |      968574      0.55%      1.16% |     2371805      1.34%      2.50% |   172470384     97.50%    100.00%
system.ruby.L1Cache_Controller.Store::total    176888763                      
system.ruby.L1Cache_Controller.Inv       |       15643     22.52%     22.52% |       20154     29.01%     51.52% |       22392     32.23%     83.75% |       11287     16.25%    100.00%
system.ruby.L1Cache_Controller.Inv::total        69476                      
system.ruby.L1Cache_Controller.L1_Replacement |       79924      2.42%      2.42% |       95787      2.90%      5.32% |      102753      3.11%      8.42% |     3026947     91.58%    100.00%
system.ruby.L1Cache_Controller.L1_Replacement::total      3305411                      
system.ruby.L1Cache_Controller.Fwd_GETX  |        1494     20.08%     20.08% |        1293     17.38%     37.45% |        2709     36.41%     73.86% |        1945     26.14%    100.00%
system.ruby.L1Cache_Controller.Fwd_GETX::total         7441                      
system.ruby.L1Cache_Controller.Fwd_GETS  |       10310     36.83%     36.83% |        5604     20.02%     56.84% |        7286     26.02%     82.87% |        4797     17.13%    100.00%
system.ruby.L1Cache_Controller.Fwd_GETS::total        27997                      
system.ruby.L1Cache_Controller.Data      |          69     10.27%     10.27% |         196     29.17%     39.43% |         156     23.21%     62.65% |         251     37.35%    100.00%
system.ruby.L1Cache_Controller.Data::total          672                      
system.ruby.L1Cache_Controller.Data_Exclusive |       10163      0.97%      0.97% |       20429      1.95%      2.91% |       27284      2.60%      5.51% |      992054     94.49%    100.00%
system.ruby.L1Cache_Controller.Data_Exclusive::total      1049930                      
system.ruby.L1Cache_Controller.DataS_fromL1 |        7885     28.16%     28.16% |       10854     38.77%     66.93% |        6531     23.33%     90.26% |        2727      9.74%    100.00%
system.ruby.L1Cache_Controller.DataS_fromL1::total        27997                      
system.ruby.L1Cache_Controller.Data_all_Acks |       72876      3.21%      3.21% |       79928      3.52%      6.72% |       85767      3.77%     10.49% |     2035208     89.51%    100.00%
system.ruby.L1Cache_Controller.Data_all_Acks::total      2273779                      
system.ruby.L1Cache_Controller.Ack       |       21927     43.79%     43.79% |        8684     17.34%     61.13% |        9446     18.86%     79.99% |       10020     20.01%    100.00%
system.ruby.L1Cache_Controller.Ack::total        50077                      
system.ruby.L1Cache_Controller.Ack_all   |        9624     37.04%     37.04% |        5283     20.33%     57.37% |        6172     23.75%     81.12% |        4907     18.88%    100.00%
system.ruby.L1Cache_Controller.Ack_all::total        25986                      
system.ruby.L1Cache_Controller.WB_Ack    |       17634      0.94%      0.94% |       31945      1.71%      2.65% |       40923      2.19%      4.84% |     1777516     95.16%    100.00%
system.ruby.L1Cache_Controller.WB_Ack::total      1868018                      
system.ruby.L1Cache_Controller.NP.Load   |       13943      1.00%      1.00% |       25310      1.82%      2.82% |       31522      2.26%      5.08% |     1321836     94.92%    100.00%
system.ruby.L1Cache_Controller.NP.Load::total      1392611                      
system.ruby.L1Cache_Controller.NP.Ifetch |       57185      5.26%      5.26% |       57413      5.28%     10.53% |       55326      5.08%     15.62% |      918185     84.38%    100.00%
system.ruby.L1Cache_Controller.NP.Ifetch::total      1088109                      
system.ruby.L1Cache_Controller.NP.Store  |        8797      1.07%      1.07% |       13508      1.64%      2.70% |       15905      1.93%      4.63% |      786992     95.37%    100.00%
system.ruby.L1Cache_Controller.NP.Store::total       825202                      
system.ruby.L1Cache_Controller.NP.Inv    |        3770     20.84%     20.84% |        4280     23.66%     44.50% |        5385     29.77%     74.26% |        4656     25.74%    100.00%
system.ruby.L1Cache_Controller.NP.Inv::total        18091                      
system.ruby.L1Cache_Controller.I.Load    |       10069     23.97%     23.97% |       14347     34.16%     58.13% |       15175     36.13%     94.26% |        2413      5.74%    100.00%
system.ruby.L1Cache_Controller.I.Load::total        42004                      
system.ruby.L1Cache_Controller.I.Ifetch  |          15     24.19%     24.19% |          15     24.19%     48.39% |          12     19.35%     67.74% |          20     32.26%    100.00%
system.ruby.L1Cache_Controller.I.Ifetch::total           62                      
system.ruby.L1Cache_Controller.I.Store   |         984     22.42%     22.42% |         813     18.53%     40.95% |        1797     40.95%     81.91% |         794     18.09%    100.00%
system.ruby.L1Cache_Controller.I.Store::total         4388                      
system.ruby.L1Cache_Controller.I.L1_Replacement |        2059     17.15%     17.15% |        2199     18.32%     35.47% |        2506     20.87%     56.34% |        5241     43.66%    100.00%
system.ruby.L1Cache_Controller.I.L1_Replacement::total        12005                      
system.ruby.L1Cache_Controller.S.Load    |      236393      0.19%      0.19% |      239964      0.19%      0.38% |      512279      0.41%      0.78% |   125013973     99.22%    100.00%
system.ruby.L1Cache_Controller.S.Load::total    126002609                      
system.ruby.L1Cache_Controller.S.Ifetch  |     6615517      0.00%      0.00% |     6387333      0.00%      0.00% |    29434574      0.00%      0.00% |18446744072221698048    100.00%    100.00%
system.ruby.L1Cache_Controller.S.Ifetch::total 18446744072264134656                      
system.ruby.L1Cache_Controller.S.Store   |        9555     37.74%     37.74% |        5088     20.10%     57.84% |        6017     23.77%     81.61% |        4656     18.39%    100.00%
system.ruby.L1Cache_Controller.S.Store::total        25316                      
system.ruby.L1Cache_Controller.S.Inv     |       11441     22.79%     22.79% |       15544     30.96%     53.75% |       16706     33.28%     87.03% |        6510     12.97%    100.00%
system.ruby.L1Cache_Controller.S.Inv::total        50201                      
system.ruby.L1Cache_Controller.S.L1_Replacement |       60231      4.23%      4.23% |       61643      4.32%      8.55% |       59324      4.16%     12.71% |     1244190     87.29%    100.00%
system.ruby.L1Cache_Controller.S.L1_Replacement::total      1425388                      
system.ruby.L1Cache_Controller.E.Load    |      149289      0.15%      0.15% |      213275      0.21%      0.36% |     1711319      1.68%      2.03% |    99918257     97.97%    100.00%
system.ruby.L1Cache_Controller.E.Load::total    101992140                      
system.ruby.L1Cache_Controller.E.Store   |        2711      1.13%      1.13% |        5083      2.11%      3.24% |        5556      2.31%      5.55% |      227302     94.45%    100.00%
system.ruby.L1Cache_Controller.E.Store::total       240652                      
system.ruby.L1Cache_Controller.E.Inv     |         105     32.31%     32.31% |          79     24.31%     56.62% |         113     34.77%     91.38% |          28      8.62%    100.00%
system.ruby.L1Cache_Controller.E.Inv::total          325                      
system.ruby.L1Cache_Controller.E.L1_Replacement |        6473      0.80%      0.80% |       13937      1.73%      2.54% |       20279      2.52%      5.06% |      763549     94.94%    100.00%
system.ruby.L1Cache_Controller.E.L1_Replacement::total       804238                      
system.ruby.L1Cache_Controller.E.Fwd_GETX |         316     29.70%     29.70% |          68      6.39%     36.09% |          36      3.38%     39.47% |         644     60.53%    100.00%
system.ruby.L1Cache_Controller.E.Fwd_GETX::total         1064                      
system.ruby.L1Cache_Controller.E.Fwd_GETS |         724     21.21%     21.21% |         884     25.90%     47.11% |        1231     36.07%     83.18% |         574     16.82%    100.00%
system.ruby.L1Cache_Controller.E.Fwd_GETS::total         3413                      
system.ruby.L1Cache_Controller.M.Load    |      988909      0.29%      0.29% |      850915      0.25%      0.53% |     3778686      1.09%      1.62% |   340274264     98.38%    100.00%
system.ruby.L1Cache_Controller.M.Load::total    345892774                      
system.ruby.L1Cache_Controller.M.Store   |     1055953      0.60%      0.60% |      944082      0.54%      1.14% |     2342530      1.33%      2.47% |   171450640     97.53%    100.00%
system.ruby.L1Cache_Controller.M.Store::total    175793205                      
system.ruby.L1Cache_Controller.M.Inv     |         327     38.16%     38.16% |         250     29.17%     67.33% |         187     21.82%     89.15% |          93     10.85%    100.00%
system.ruby.L1Cache_Controller.M.Inv::total          857                      
system.ruby.L1Cache_Controller.M.L1_Replacement |       11161      1.05%      1.05% |       18008      1.69%      2.74% |       20644      1.94%      4.68% |     1013967     95.32%    100.00%
system.ruby.L1Cache_Controller.M.L1_Replacement::total      1063780                      
system.ruby.L1Cache_Controller.M.Fwd_GETX |        1178     18.48%     18.48% |        1225     19.21%     37.69% |        2672     41.91%     79.60% |        1301     20.40%    100.00%
system.ruby.L1Cache_Controller.M.Fwd_GETX::total         6376                      
system.ruby.L1Cache_Controller.M.Fwd_GETS |        9586     38.99%     38.99% |        4720     19.20%     58.19% |        6055     24.63%     82.82% |        4223     17.18%    100.00%
system.ruby.L1Cache_Controller.M.Fwd_GETS::total        24584                      
system.ruby.L1Cache_Controller.IS.Data_Exclusive |       10163      0.97%      0.97% |       20429      1.95%      2.91% |       27284      2.60%      5.51% |      992054     94.49%    100.00%
system.ruby.L1Cache_Controller.IS.Data_Exclusive::total      1049930                      
system.ruby.L1Cache_Controller.IS.DataS_fromL1 |        7885     28.16%     28.16% |       10854     38.77%     66.93% |        6531     23.33%     90.26% |        2727      9.74%    100.00%
system.ruby.L1Cache_Controller.IS.DataS_fromL1::total        27997                      
system.ruby.L1Cache_Controller.IS.Data_all_Acks |       63164      4.37%      4.37% |       65802      4.55%      8.93% |       68220      4.72%     13.65% |     1247673     86.35%    100.00%
system.ruby.L1Cache_Controller.IS.Data_all_Acks::total      1444859                      
system.ruby.L1Cache_Controller.IM.Data   |          69     10.27%     10.27% |         196     29.17%     39.43% |         156     23.21%     62.65% |         251     37.35%    100.00%
system.ruby.L1Cache_Controller.IM.Data::total          672                      
system.ruby.L1Cache_Controller.IM.Data_all_Acks |        9712      1.17%      1.17% |       14126      1.70%      2.88% |       17547      2.12%      4.99% |      787535     95.01%    100.00%
system.ruby.L1Cache_Controller.IM.Data_all_Acks::total       828920                      
system.ruby.L1Cache_Controller.IM.Ack    |           0      0.00%      0.00% |           1    100.00%    100.00% |           0      0.00%    100.00% |           0      0.00%    100.00%
system.ruby.L1Cache_Controller.IM.Ack::total            1                      
system.ruby.L1Cache_Controller.SM.Inv    |           0      0.00%      0.00% |           1     50.00%     50.00% |           1     50.00%    100.00% |           0      0.00%    100.00%
system.ruby.L1Cache_Controller.SM.Inv::total            2                      
system.ruby.L1Cache_Controller.SM.Ack    |       21927     43.79%     43.79% |        8683     17.34%     61.13% |        9446     18.86%     79.99% |       10020     20.01%    100.00%
system.ruby.L1Cache_Controller.SM.Ack::total        50076                      
system.ruby.L1Cache_Controller.SM.Ack_all |        9624     37.04%     37.04% |        5283     20.33%     57.37% |        6172     23.75%     81.12% |        4907     18.88%    100.00%
system.ruby.L1Cache_Controller.SM.Ack_all::total        25986                      
system.ruby.L1Cache_Controller.M_I.Ifetch |           0      0.00%      0.00% |           0      0.00%      0.00% |           1     50.00%     50.00% |           1     50.00%    100.00%
system.ruby.L1Cache_Controller.M_I.Ifetch::total            2                      
system.ruby.L1Cache_Controller.M_I.Fwd_GETX |           0      0.00%      0.00% |           0      0.00%      0.00% |           1    100.00%    100.00% |           0      0.00%    100.00%
system.ruby.L1Cache_Controller.M_I.Fwd_GETX::total            1                      
system.ruby.L1Cache_Controller.M_I.WB_Ack |       17634      0.94%      0.94% |       31945      1.71%      2.65% |       40922      2.19%      4.84% |     1777516     95.16%    100.00%
system.ruby.L1Cache_Controller.M_I.WB_Ack::total      1868017                      
system.ruby.L1Cache_Controller.SINK_WB_ACK.WB_Ack |           0      0.00%      0.00% |           0      0.00%      0.00% |           1    100.00%    100.00% |           0      0.00%    100.00%
system.ruby.L1Cache_Controller.SINK_WB_ACK.WB_Ack::total            1                      
system.ruby.L2Cache_Controller.L1_GET_INSTR      1088171      0.00%      0.00%
system.ruby.L2Cache_Controller.L1_GETS        1435197      0.00%      0.00%
system.ruby.L2Cache_Controller.L1_GETX         829596      0.00%      0.00%
system.ruby.L2Cache_Controller.L1_UPGRADE        25316      0.00%      0.00%
system.ruby.L2Cache_Controller.L1_PUTX        1868018      0.00%      0.00%
system.ruby.L2Cache_Controller.L1_PUTX_old            1      0.00%      0.00%
system.ruby.L2Cache_Controller.L2_Replacement        22348      0.00%      0.00%
system.ruby.L2Cache_Controller.L2_Replacement_clean        16704      0.00%      0.00%
system.ruby.L2Cache_Controller.Mem_Data         56157      0.00%      0.00%
system.ruby.L2Cache_Controller.Mem_Ack          39238      0.00%      0.00%
system.ruby.L2Cache_Controller.WB_Data          25441      0.00%      0.00%
system.ruby.L2Cache_Controller.WB_Data_clean         3413      0.00%      0.00%
system.ruby.L2Cache_Controller.Ack               9405      0.00%      0.00%
system.ruby.L2Cache_Controller.Ack_all           8465      0.00%      0.00%
system.ruby.L2Cache_Controller.Unblock          27997      0.00%      0.00%
system.ruby.L2Cache_Controller.Exclusive_Unblock      1904836      0.00%      0.00%
system.ruby.L2Cache_Controller.MEM_Inv            372      0.00%      0.00%
system.ruby.L2Cache_Controller.NP.L1_GET_INSTR         8863      0.00%      0.00%
system.ruby.L2Cache_Controller.NP.L1_GETS        22697      0.00%      0.00%
system.ruby.L2Cache_Controller.NP.L1_GETX        24597      0.00%      0.00%
system.ruby.L2Cache_Controller.SS.L1_GET_INSTR      1079298      0.00%      0.00%
system.ruby.L2Cache_Controller.SS.L1_GETS       356662      0.00%      0.00%
system.ruby.L2Cache_Controller.SS.L1_GETX          673      0.00%      0.00%
system.ruby.L2Cache_Controller.SS.L1_UPGRADE        25314      0.00%      0.00%
system.ruby.L2Cache_Controller.SS.L2_Replacement          497      0.00%      0.00%
system.ruby.L2Cache_Controller.SS.L2_Replacement_clean         7510      0.00%      0.00%
system.ruby.L2Cache_Controller.SS.MEM_Inv          133      0.00%      0.00%
system.ruby.L2Cache_Controller.M.L1_GET_INSTR           10      0.00%      0.00%
system.ruby.L2Cache_Controller.M.L1_GETS      1027246      0.00%      0.00%
system.ruby.L2Cache_Controller.M.L1_GETX       796881      0.00%      0.00%
system.ruby.L2Cache_Controller.M.L2_Replacement        21405      0.00%      0.00%
system.ruby.L2Cache_Controller.M.L2_Replacement_clean         8469      0.00%      0.00%
system.ruby.L2Cache_Controller.M.MEM_Inv           42      0.00%      0.00%
system.ruby.L2Cache_Controller.MT.L1_GETS        27997      0.00%      0.00%
system.ruby.L2Cache_Controller.MT.L1_GETX         7441      0.00%      0.00%
system.ruby.L2Cache_Controller.MT.L1_PUTX      1868017      0.00%      0.00%
system.ruby.L2Cache_Controller.MT.L1_PUTX_old            1      0.00%      0.00%
system.ruby.L2Cache_Controller.MT.L2_Replacement          446      0.00%      0.00%
system.ruby.L2Cache_Controller.MT.L2_Replacement_clean          725      0.00%      0.00%
system.ruby.L2Cache_Controller.MT.MEM_Inv           11      0.00%      0.00%
system.ruby.L2Cache_Controller.M_I.L1_GETX            2      0.00%      0.00%
system.ruby.L2Cache_Controller.M_I.Mem_Ack        39238      0.00%      0.00%
system.ruby.L2Cache_Controller.M_I.MEM_Inv           42      0.00%      0.00%
system.ruby.L2Cache_Controller.MT_I.WB_Data          364      0.00%      0.00%
system.ruby.L2Cache_Controller.MT_I.Ack_all           93      0.00%      0.00%
system.ruby.L2Cache_Controller.MT_I.MEM_Inv           11      0.00%      0.00%
system.ruby.L2Cache_Controller.MCT_I.WB_Data          493      0.00%      0.00%
system.ruby.L2Cache_Controller.MCT_I.Ack_all          232      0.00%      0.00%
system.ruby.L2Cache_Controller.I_I.Ack           8643      0.00%      0.00%
system.ruby.L2Cache_Controller.I_I.Ack_all         7510      0.00%      0.00%
system.ruby.L2Cache_Controller.S_I.Ack            762      0.00%      0.00%
system.ruby.L2Cache_Controller.S_I.Ack_all          630      0.00%      0.00%
system.ruby.L2Cache_Controller.S_I.MEM_Inv          133      0.00%      0.00%
system.ruby.L2Cache_Controller.ISS.L1_GETS           13      0.00%      0.00%
system.ruby.L2Cache_Controller.ISS.Mem_Data        22684      0.00%      0.00%
system.ruby.L2Cache_Controller.IS.Mem_Data         8876      0.00%      0.00%
system.ruby.L2Cache_Controller.IM.Mem_Data        24597      0.00%      0.00%
system.ruby.L2Cache_Controller.SS_MB.L1_GETS           59      0.00%      0.00%
system.ruby.L2Cache_Controller.SS_MB.L1_UPGRADE            2      0.00%      0.00%
system.ruby.L2Cache_Controller.SS_MB.Exclusive_Unblock        25987      0.00%      0.00%
system.ruby.L2Cache_Controller.MT_MB.L1_GETS          521      0.00%      0.00%
system.ruby.L2Cache_Controller.MT_MB.L1_GETX            2      0.00%      0.00%
system.ruby.L2Cache_Controller.MT_MB.L1_PUTX            1      0.00%      0.00%
system.ruby.L2Cache_Controller.MT_MB.Exclusive_Unblock      1878849      0.00%      0.00%
system.ruby.L2Cache_Controller.MT_IIB.L1_GETS            2      0.00%      0.00%
system.ruby.L2Cache_Controller.MT_IIB.WB_Data        24567      0.00%      0.00%
system.ruby.L2Cache_Controller.MT_IIB.WB_Data_clean         3408      0.00%      0.00%
system.ruby.L2Cache_Controller.MT_IIB.Unblock           22      0.00%      0.00%
system.ruby.L2Cache_Controller.MT_IB.WB_Data           17      0.00%      0.00%
system.ruby.L2Cache_Controller.MT_IB.WB_Data_clean            5      0.00%      0.00%
system.ruby.L2Cache_Controller.MT_SB.Unblock        27975      0.00%      0.00%

---------- End Simulation Statistics   ----------
