
---------- Begin Simulation Statistics ----------
sim_seconds                                  4.077118                       # Number of seconds simulated
sim_ticks                                4077117810000                       # Number of ticks simulated
final_tick                               56274897958501                       # Number of ticks from beginning of simulation (restored from checkpoints and never reset)
sim_freq                                 1000000000000                       # Frequency of simulated ticks
host_inst_rate                                 142284                       # Simulator instruction rate (inst/s)
host_op_rate                                   199493                       # Simulator op (including micro ops) rate (op/s)
host_tick_rate                              257720399                       # Simulator tick rate (ticks/s)
host_mem_usage                                1846608                       # Number of bytes of host memory used
host_seconds                                 15819.93                       # Real time elapsed on the host
sim_insts                                  2250927157                       # Number of instructions simulated
sim_ops                                    3155969678                       # Number of ops (including micro ops) simulated
system.voltage_domain.voltage                       1                       # Voltage in Volts
system.clk_domain.clock                          1000                       # Clock period in ticks
system.mem_ctrls.bytes_read::ruby.dir_cntrl0     44332672                       # Number of bytes read from this memory
system.mem_ctrls.bytes_read::total           44332672                       # Number of bytes read from this memory
system.mem_ctrls.bytes_written::ruby.dir_cntrl0     30479808                       # Number of bytes written to this memory
system.mem_ctrls.bytes_written::total        30479808                       # Number of bytes written to this memory
system.mem_ctrls.num_reads::ruby.dir_cntrl0       692698                       # Number of read requests responded to by this memory
system.mem_ctrls.num_reads::total              692698                       # Number of read requests responded to by this memory
system.mem_ctrls.num_writes::ruby.dir_cntrl0       476247                       # Number of write requests responded to by this memory
system.mem_ctrls.num_writes::total             476247                       # Number of write requests responded to by this memory
system.mem_ctrls.bw_read::ruby.dir_cntrl0     10873532                       # Total read bandwidth from this memory (bytes/s)
system.mem_ctrls.bw_read::total              10873532                       # Total read bandwidth from this memory (bytes/s)
system.mem_ctrls.bw_write::ruby.dir_cntrl0      7475822                       # Write bandwidth from this memory (bytes/s)
system.mem_ctrls.bw_write::total              7475822                       # Write bandwidth from this memory (bytes/s)
system.mem_ctrls.bw_total::ruby.dir_cntrl0     18349354                       # Total bandwidth to/from this memory (bytes/s)
system.mem_ctrls.bw_total::total             18349354                       # Total bandwidth to/from this memory (bytes/s)
system.mem_ctrls.readReqs                      692698                       # Number of read requests accepted
system.mem_ctrls.writeReqs                     476247                       # Number of write requests accepted
system.mem_ctrls.readBursts                    692698                       # Number of DRAM read bursts, including those serviced by the write queue
system.mem_ctrls.writeBursts                   476247                       # Number of DRAM write bursts, including those merged in the write queue
system.mem_ctrls.bytesReadDRAM               44266688                       # Total number of bytes read from DRAM
system.mem_ctrls.bytesReadWrQ                   65984                       # Total number of bytes read from write queue
system.mem_ctrls.bytesWritten                30478400                       # Total number of bytes written to DRAM
system.mem_ctrls.bytesReadSys                44332672                       # Total read bytes from the system interface side
system.mem_ctrls.bytesWrittenSys             30479808                       # Total written bytes from the system interface side
system.mem_ctrls.servicedByWrQ                   1031                       # Number of DRAM read bursts serviced by the write queue
system.mem_ctrls.mergedWrBursts                     0                       # Number of DRAM write bursts merged with an existing one
system.mem_ctrls.neitherReadNorWriteReqs            0                       # Number of requests that are neither read nor write
system.mem_ctrls.perBankRdBursts::0             42514                       # Per bank write bursts
system.mem_ctrls.perBankRdBursts::1             46544                       # Per bank write bursts
system.mem_ctrls.perBankRdBursts::2             41525                       # Per bank write bursts
system.mem_ctrls.perBankRdBursts::3             39361                       # Per bank write bursts
system.mem_ctrls.perBankRdBursts::4             44337                       # Per bank write bursts
system.mem_ctrls.perBankRdBursts::5             42933                       # Per bank write bursts
system.mem_ctrls.perBankRdBursts::6             44855                       # Per bank write bursts
system.mem_ctrls.perBankRdBursts::7             48594                       # Per bank write bursts
system.mem_ctrls.perBankRdBursts::8             47273                       # Per bank write bursts
system.mem_ctrls.perBankRdBursts::9             41404                       # Per bank write bursts
system.mem_ctrls.perBankRdBursts::10            39818                       # Per bank write bursts
system.mem_ctrls.perBankRdBursts::11            38477                       # Per bank write bursts
system.mem_ctrls.perBankRdBursts::12            45056                       # Per bank write bursts
system.mem_ctrls.perBankRdBursts::13            43238                       # Per bank write bursts
system.mem_ctrls.perBankRdBursts::14            42472                       # Per bank write bursts
system.mem_ctrls.perBankRdBursts::15            43266                       # Per bank write bursts
system.mem_ctrls.perBankWrBursts::0             28904                       # Per bank write bursts
system.mem_ctrls.perBankWrBursts::1             31999                       # Per bank write bursts
system.mem_ctrls.perBankWrBursts::2             28674                       # Per bank write bursts
system.mem_ctrls.perBankWrBursts::3             27039                       # Per bank write bursts
system.mem_ctrls.perBankWrBursts::4             30637                       # Per bank write bursts
system.mem_ctrls.perBankWrBursts::5             29563                       # Per bank write bursts
system.mem_ctrls.perBankWrBursts::6             31138                       # Per bank write bursts
system.mem_ctrls.perBankWrBursts::7             33473                       # Per bank write bursts
system.mem_ctrls.perBankWrBursts::8             32001                       # Per bank write bursts
system.mem_ctrls.perBankWrBursts::9             28812                       # Per bank write bursts
system.mem_ctrls.perBankWrBursts::10            27486                       # Per bank write bursts
system.mem_ctrls.perBankWrBursts::11            26741                       # Per bank write bursts
system.mem_ctrls.perBankWrBursts::12            31385                       # Per bank write bursts
system.mem_ctrls.perBankWrBursts::13            29802                       # Per bank write bursts
system.mem_ctrls.perBankWrBursts::14            29181                       # Per bank write bursts
system.mem_ctrls.perBankWrBursts::15            29390                       # Per bank write bursts
system.mem_ctrls.numRdRetry                         0                       # Number of times read queue was full causing retry
system.mem_ctrls.numWrRetry                         0                       # Number of times write queue was full causing retry
system.mem_ctrls.totGap                  4077117759000                       # Total gap between requests
system.mem_ctrls.readPktSize::0                     0                       # Read request sizes (log2)
system.mem_ctrls.readPktSize::1                     0                       # Read request sizes (log2)
system.mem_ctrls.readPktSize::2                     0                       # Read request sizes (log2)
system.mem_ctrls.readPktSize::3                     0                       # Read request sizes (log2)
system.mem_ctrls.readPktSize::4                     0                       # Read request sizes (log2)
system.mem_ctrls.readPktSize::5                     0                       # Read request sizes (log2)
system.mem_ctrls.readPktSize::6                692698                       # Read request sizes (log2)
system.mem_ctrls.writePktSize::0                    0                       # Write request sizes (log2)
system.mem_ctrls.writePktSize::1                    0                       # Write request sizes (log2)
system.mem_ctrls.writePktSize::2                    0                       # Write request sizes (log2)
system.mem_ctrls.writePktSize::3                    0                       # Write request sizes (log2)
system.mem_ctrls.writePktSize::4                    0                       # Write request sizes (log2)
system.mem_ctrls.writePktSize::5                    0                       # Write request sizes (log2)
system.mem_ctrls.writePktSize::6               476247                       # Write request sizes (log2)
system.mem_ctrls.rdQLenPdf::0                  690144                       # What read queue length does an incoming req see
system.mem_ctrls.rdQLenPdf::1                    1510                       # What read queue length does an incoming req see
system.mem_ctrls.rdQLenPdf::2                      13                       # What read queue length does an incoming req see
system.mem_ctrls.rdQLenPdf::3                       0                       # What read queue length does an incoming req see
system.mem_ctrls.rdQLenPdf::4                       0                       # What read queue length does an incoming req see
system.mem_ctrls.rdQLenPdf::5                       0                       # What read queue length does an incoming req see
system.mem_ctrls.rdQLenPdf::6                       0                       # What read queue length does an incoming req see
system.mem_ctrls.rdQLenPdf::7                       0                       # What read queue length does an incoming req see
system.mem_ctrls.rdQLenPdf::8                       0                       # What read queue length does an incoming req see
system.mem_ctrls.rdQLenPdf::9                       0                       # What read queue length does an incoming req see
system.mem_ctrls.rdQLenPdf::10                      0                       # What read queue length does an incoming req see
system.mem_ctrls.rdQLenPdf::11                      0                       # What read queue length does an incoming req see
system.mem_ctrls.rdQLenPdf::12                      0                       # What read queue length does an incoming req see
system.mem_ctrls.rdQLenPdf::13                      0                       # What read queue length does an incoming req see
system.mem_ctrls.rdQLenPdf::14                      0                       # What read queue length does an incoming req see
system.mem_ctrls.rdQLenPdf::15                      0                       # What read queue length does an incoming req see
system.mem_ctrls.rdQLenPdf::16                      0                       # What read queue length does an incoming req see
system.mem_ctrls.rdQLenPdf::17                      0                       # What read queue length does an incoming req see
system.mem_ctrls.rdQLenPdf::18                      0                       # What read queue length does an incoming req see
system.mem_ctrls.rdQLenPdf::19                      0                       # What read queue length does an incoming req see
system.mem_ctrls.rdQLenPdf::20                      0                       # What read queue length does an incoming req see
system.mem_ctrls.rdQLenPdf::21                      0                       # What read queue length does an incoming req see
system.mem_ctrls.rdQLenPdf::22                      0                       # What read queue length does an incoming req see
system.mem_ctrls.rdQLenPdf::23                      0                       # What read queue length does an incoming req see
system.mem_ctrls.rdQLenPdf::24                      0                       # What read queue length does an incoming req see
system.mem_ctrls.rdQLenPdf::25                      0                       # What read queue length does an incoming req see
system.mem_ctrls.rdQLenPdf::26                      0                       # What read queue length does an incoming req see
system.mem_ctrls.rdQLenPdf::27                      0                       # What read queue length does an incoming req see
system.mem_ctrls.rdQLenPdf::28                      0                       # What read queue length does an incoming req see
system.mem_ctrls.rdQLenPdf::29                      0                       # What read queue length does an incoming req see
system.mem_ctrls.rdQLenPdf::30                      0                       # What read queue length does an incoming req see
system.mem_ctrls.rdQLenPdf::31                      0                       # What read queue length does an incoming req see
system.mem_ctrls.wrQLenPdf::0                       1                       # What write queue length does an incoming req see
system.mem_ctrls.wrQLenPdf::1                       1                       # What write queue length does an incoming req see
system.mem_ctrls.wrQLenPdf::2                       1                       # What write queue length does an incoming req see
system.mem_ctrls.wrQLenPdf::3                       1                       # What write queue length does an incoming req see
system.mem_ctrls.wrQLenPdf::4                       1                       # What write queue length does an incoming req see
system.mem_ctrls.wrQLenPdf::5                       1                       # What write queue length does an incoming req see
system.mem_ctrls.wrQLenPdf::6                       1                       # What write queue length does an incoming req see
system.mem_ctrls.wrQLenPdf::7                       1                       # What write queue length does an incoming req see
system.mem_ctrls.wrQLenPdf::8                       1                       # What write queue length does an incoming req see
system.mem_ctrls.wrQLenPdf::9                       1                       # What write queue length does an incoming req see
system.mem_ctrls.wrQLenPdf::10                      1                       # What write queue length does an incoming req see
system.mem_ctrls.wrQLenPdf::11                      1                       # What write queue length does an incoming req see
system.mem_ctrls.wrQLenPdf::12                      1                       # What write queue length does an incoming req see
system.mem_ctrls.wrQLenPdf::13                      1                       # What write queue length does an incoming req see
system.mem_ctrls.wrQLenPdf::14                      1                       # What write queue length does an incoming req see
system.mem_ctrls.wrQLenPdf::15                    758                       # What write queue length does an incoming req see
system.mem_ctrls.wrQLenPdf::16                    800                       # What write queue length does an incoming req see
system.mem_ctrls.wrQLenPdf::17                  29284                       # What write queue length does an incoming req see
system.mem_ctrls.wrQLenPdf::18                  29615                       # What write queue length does an incoming req see
system.mem_ctrls.wrQLenPdf::19                  29643                       # What write queue length does an incoming req see
system.mem_ctrls.wrQLenPdf::20                  29693                       # What write queue length does an incoming req see
system.mem_ctrls.wrQLenPdf::21                  29712                       # What write queue length does an incoming req see
system.mem_ctrls.wrQLenPdf::22                  29724                       # What write queue length does an incoming req see
system.mem_ctrls.wrQLenPdf::23                  29721                       # What write queue length does an incoming req see
system.mem_ctrls.wrQLenPdf::24                  29711                       # What write queue length does an incoming req see
system.mem_ctrls.wrQLenPdf::25                  29694                       # What write queue length does an incoming req see
system.mem_ctrls.wrQLenPdf::26                  29717                       # What write queue length does an incoming req see
system.mem_ctrls.wrQLenPdf::27                  29707                       # What write queue length does an incoming req see
system.mem_ctrls.wrQLenPdf::28                  29696                       # What write queue length does an incoming req see
system.mem_ctrls.wrQLenPdf::29                  29689                       # What write queue length does an incoming req see
system.mem_ctrls.wrQLenPdf::30                  29677                       # What write queue length does an incoming req see
system.mem_ctrls.wrQLenPdf::31                  29674                       # What write queue length does an incoming req see
system.mem_ctrls.wrQLenPdf::32                  29663                       # What write queue length does an incoming req see
system.mem_ctrls.wrQLenPdf::33                      8                       # What write queue length does an incoming req see
system.mem_ctrls.wrQLenPdf::34                      4                       # What write queue length does an incoming req see
system.mem_ctrls.wrQLenPdf::35                      7                       # What write queue length does an incoming req see
system.mem_ctrls.wrQLenPdf::36                      6                       # What write queue length does an incoming req see
system.mem_ctrls.wrQLenPdf::37                      4                       # What write queue length does an incoming req see
system.mem_ctrls.wrQLenPdf::38                      7                       # What write queue length does an incoming req see
system.mem_ctrls.wrQLenPdf::39                      6                       # What write queue length does an incoming req see
system.mem_ctrls.wrQLenPdf::40                      5                       # What write queue length does an incoming req see
system.mem_ctrls.wrQLenPdf::41                      4                       # What write queue length does an incoming req see
system.mem_ctrls.wrQLenPdf::42                      2                       # What write queue length does an incoming req see
system.mem_ctrls.wrQLenPdf::43                      1                       # What write queue length does an incoming req see
system.mem_ctrls.wrQLenPdf::44                      0                       # What write queue length does an incoming req see
system.mem_ctrls.wrQLenPdf::45                      0                       # What write queue length does an incoming req see
system.mem_ctrls.wrQLenPdf::46                      0                       # What write queue length does an incoming req see
system.mem_ctrls.wrQLenPdf::47                      0                       # What write queue length does an incoming req see
system.mem_ctrls.wrQLenPdf::48                      0                       # What write queue length does an incoming req see
system.mem_ctrls.wrQLenPdf::49                      0                       # What write queue length does an incoming req see
system.mem_ctrls.wrQLenPdf::50                      0                       # What write queue length does an incoming req see
system.mem_ctrls.wrQLenPdf::51                      0                       # What write queue length does an incoming req see
system.mem_ctrls.wrQLenPdf::52                      0                       # What write queue length does an incoming req see
system.mem_ctrls.wrQLenPdf::53                      0                       # What write queue length does an incoming req see
system.mem_ctrls.wrQLenPdf::54                      0                       # What write queue length does an incoming req see
system.mem_ctrls.wrQLenPdf::55                      0                       # What write queue length does an incoming req see
system.mem_ctrls.wrQLenPdf::56                      0                       # What write queue length does an incoming req see
system.mem_ctrls.wrQLenPdf::57                      0                       # What write queue length does an incoming req see
system.mem_ctrls.wrQLenPdf::58                      0                       # What write queue length does an incoming req see
system.mem_ctrls.wrQLenPdf::59                      0                       # What write queue length does an incoming req see
system.mem_ctrls.wrQLenPdf::60                      0                       # What write queue length does an incoming req see
system.mem_ctrls.wrQLenPdf::61                      0                       # What write queue length does an incoming req see
system.mem_ctrls.wrQLenPdf::62                      0                       # What write queue length does an incoming req see
system.mem_ctrls.wrQLenPdf::63                      0                       # What write queue length does an incoming req see
system.mem_ctrls.bytesPerActivate::samples       589791                       # Bytes accessed per row activation
system.mem_ctrls.bytesPerActivate::mean    126.731483                       # Bytes accessed per row activation
system.mem_ctrls.bytesPerActivate::gmean    91.625675                       # Bytes accessed per row activation
system.mem_ctrls.bytesPerActivate::stdev   163.028306                       # Bytes accessed per row activation
system.mem_ctrls.bytesPerActivate::0-127       413167     70.05%     70.05% # Bytes accessed per row activation
system.mem_ctrls.bytesPerActivate::128-255       116266     19.71%     89.77% # Bytes accessed per row activation
system.mem_ctrls.bytesPerActivate::256-383        23819      4.04%     93.80% # Bytes accessed per row activation
system.mem_ctrls.bytesPerActivate::384-511        10943      1.86%     95.66% # Bytes accessed per row activation
system.mem_ctrls.bytesPerActivate::512-639         6850      1.16%     96.82% # Bytes accessed per row activation
system.mem_ctrls.bytesPerActivate::640-767         4473      0.76%     97.58% # Bytes accessed per row activation
system.mem_ctrls.bytesPerActivate::768-895         2923      0.50%     98.08% # Bytes accessed per row activation
system.mem_ctrls.bytesPerActivate::896-1023         3044      0.52%     98.59% # Bytes accessed per row activation
system.mem_ctrls.bytesPerActivate::1024-1151         8306      1.41%    100.00% # Bytes accessed per row activation
system.mem_ctrls.bytesPerActivate::total       589791                       # Bytes accessed per row activation
system.mem_ctrls.rdPerTurnAround::samples        29660                       # Reads before turning the bus around for writes
system.mem_ctrls.rdPerTurnAround::mean      23.841200                       # Reads before turning the bus around for writes
system.mem_ctrls.rdPerTurnAround::gmean     21.216602                       # Reads before turning the bus around for writes
system.mem_ctrls.rdPerTurnAround::stdev    164.123059                       # Reads before turning the bus around for writes
system.mem_ctrls.rdPerTurnAround::0-1023        29651     99.97%     99.97% # Reads before turning the bus around for writes
system.mem_ctrls.rdPerTurnAround::1024-2047            3      0.01%     99.98% # Reads before turning the bus around for writes
system.mem_ctrls.rdPerTurnAround::2048-3071            4      0.01%     99.99% # Reads before turning the bus around for writes
system.mem_ctrls.rdPerTurnAround::4096-5119            1      0.00%    100.00% # Reads before turning the bus around for writes
system.mem_ctrls.rdPerTurnAround::26624-27647            1      0.00%    100.00% # Reads before turning the bus around for writes
system.mem_ctrls.rdPerTurnAround::total         29660                       # Reads before turning the bus around for writes
system.mem_ctrls.wrPerTurnAround::samples        29660                       # Writes before turning the bus around for reads
system.mem_ctrls.wrPerTurnAround::mean      16.056136                       # Writes before turning the bus around for reads
system.mem_ctrls.wrPerTurnAround::gmean     16.052848                       # Writes before turning the bus around for reads
system.mem_ctrls.wrPerTurnAround::stdev      0.339154                       # Writes before turning the bus around for reads
system.mem_ctrls.wrPerTurnAround::16            28827     97.19%     97.19% # Writes before turning the bus around for reads
system.mem_ctrls.wrPerTurnAround::17               45      0.15%     97.34% # Writes before turning the bus around for reads
system.mem_ctrls.wrPerTurnAround::18              768      2.59%     99.93% # Writes before turning the bus around for reads
system.mem_ctrls.wrPerTurnAround::19                9      0.03%     99.96% # Writes before turning the bus around for reads
system.mem_ctrls.wrPerTurnAround::20                4      0.01%     99.98% # Writes before turning the bus around for reads
system.mem_ctrls.wrPerTurnAround::21                2      0.01%     99.98% # Writes before turning the bus around for reads
system.mem_ctrls.wrPerTurnAround::22                4      0.01%    100.00% # Writes before turning the bus around for reads
system.mem_ctrls.wrPerTurnAround::23                1      0.00%    100.00% # Writes before turning the bus around for reads
system.mem_ctrls.wrPerTurnAround::total         29660                       # Writes before turning the bus around for reads
system.mem_ctrls.totQLat                  11322876708                       # Total ticks spent queuing
system.mem_ctrls.totMemAccLat             24291632958                       # Total ticks spent from burst creation until serviced by the DRAM
system.mem_ctrls.totBusLat                 3458335000                       # Total ticks spent in databus transfers
system.mem_ctrls.avgQLat                     16370.42                       # Average queueing delay per DRAM burst
system.mem_ctrls.avgBusLat                    5000.00                       # Average bus latency per DRAM burst
system.mem_ctrls.avgMemAccLat                35120.42                       # Average memory access latency per DRAM burst
system.mem_ctrls.avgRdBW                        10.86                       # Average DRAM read bandwidth in MiByte/s
system.mem_ctrls.avgWrBW                         7.48                       # Average achieved write bandwidth in MiByte/s
system.mem_ctrls.avgRdBWSys                     10.87                       # Average system read bandwidth in MiByte/s
system.mem_ctrls.avgWrBWSys                      7.48                       # Average system write bandwidth in MiByte/s
system.mem_ctrls.peakBW                      12800.00                       # Theoretical peak bandwidth in MiByte/s
system.mem_ctrls.busUtil                         0.14                       # Data bus utilization in percentage
system.mem_ctrls.busUtilRead                     0.08                       # Data bus utilization in percentage for reads
system.mem_ctrls.busUtilWrite                    0.06                       # Data bus utilization in percentage for writes
system.mem_ctrls.avgRdQLen                       1.00                       # Average read queue length when enqueuing
system.mem_ctrls.avgWrQLen                      25.51                       # Average write queue length when enqueuing
system.mem_ctrls.readRowHits                   399169                       # Number of row buffer hits during reads
system.mem_ctrls.writeRowHits                  178932                       # Number of row buffer hits during writes
system.mem_ctrls.readRowHitRate                 57.71                       # Row buffer hit rate for reads
system.mem_ctrls.writeRowHitRate                37.57                       # Row buffer hit rate for writes
system.mem_ctrls.avgGap                    3487861.07                       # Average gap between requests
system.mem_ctrls.pageHitRate                    49.50                       # Row buffer hit rate, read and write combined
system.mem_ctrls_0.actEnergy               2299721760                       # Energy for activate commands per rank (pJ)
system.mem_ctrls_0.preEnergy               1254808500                       # Energy for precharge commands per rank (pJ)
system.mem_ctrls_0.readEnergy              2797930200                       # Energy for read commands per rank (pJ)
system.mem_ctrls_0.writeEnergy             1564446960                       # Energy for write commands per rank (pJ)
system.mem_ctrls_0.refreshEnergy         266549010000                       # Energy for refresh commands per rank (pJ)
system.mem_ctrls_0.actBackEnergy         335351077965                       # Energy for active background per rank (pJ)
system.mem_ctrls_0.preBackEnergy         2154413512500                       # Energy for precharge background per rank (pJ)
system.mem_ctrls_0.totalEnergy           2764230507885                       # Total energy per rank (pJ)
system.mem_ctrls_0.averagePower            677.346684                       # Core power per rank (mW)
system.mem_ctrls_0.memoryStateTime::IDLE 3580781521001                       # Time in different power states
system.mem_ctrls_0.memoryStateTime::REF  136143800000                       # Time in different power states
system.mem_ctrls_0.memoryStateTime::PRE_PDN            0                       # Time in different power states
system.mem_ctrls_0.memoryStateTime::ACT  360192429999                       # Time in different power states
system.mem_ctrls_0.memoryStateTime::ACT_PDN            0                       # Time in different power states
system.mem_ctrls_1.actEnergy               2188604880                       # Energy for activate commands per rank (pJ)
system.mem_ctrls_1.preEnergy               1194179250                       # Energy for precharge commands per rank (pJ)
system.mem_ctrls_1.readEnergy              2717746200                       # Energy for read commands per rank (pJ)
system.mem_ctrls_1.writeEnergy             1521491040                       # Energy for write commands per rank (pJ)
system.mem_ctrls_1.refreshEnergy         266549010000                       # Energy for refresh commands per rank (pJ)
system.mem_ctrls_1.actBackEnergy         328321071315                       # Energy for active background per rank (pJ)
system.mem_ctrls_1.preBackEnergy         2160580185000                       # Energy for precharge background per rank (pJ)
system.mem_ctrls_1.totalEnergy           2763072287685                       # Total energy per rank (pJ)
system.mem_ctrls_1.averagePower            677.062874                       # Core power per rank (mW)
system.mem_ctrls_1.memoryStateTime::IDLE 3590974456750                       # Time in different power states
system.mem_ctrls_1.memoryStateTime::REF  136143800000                       # Time in different power states
system.mem_ctrls_1.memoryStateTime::PRE_PDN            0                       # Time in different power states
system.mem_ctrls_1.memoryStateTime::ACT  349995830750                       # Time in different power states
system.mem_ctrls_1.memoryStateTime::ACT_PDN            0                       # Time in different power states
system.cpu_voltage_domain.voltage                   1                       # Voltage in Volts
system.cpu_clk_domain.clock                       500                       # Clock period in ticks
system.cpu0.apic_clk_domain.clock                8000                       # Clock period in ticks
system.cpu0.numCycles                      8154004654                       # number of cpu cycles simulated
system.cpu0.numWorkItemsStarted                     0                       # number of work items this cpu started
system.cpu0.numWorkItemsCompleted                   0                       # number of work items this cpu completed
system.cpu0.kern.inst.arm                           0                       # number of arm instructions executed
system.cpu0.kern.inst.quiesce                       0                       # number of quiesce instructions executed
system.cpu0.committedInsts                    4249983                       # Number of instructions committed
system.cpu0.committedOps                      8962283                       # Number of ops (including micro ops) committed
system.cpu0.num_int_alu_accesses              8783213                       # Number of integer alu accesses
system.cpu0.num_fp_alu_accesses                  1814                       # Number of float alu accesses
system.cpu0.num_func_calls                     247558                       # number of times a function call or return occured
system.cpu0.num_conditional_control_insts       637709                       # number of instructions that are conditional controls
system.cpu0.num_int_insts                     8783213                       # number of integer instructions
system.cpu0.num_fp_insts                         1814                       # number of float instructions
system.cpu0.num_int_register_reads           17796983                       # number of times the integer registers were read
system.cpu0.num_int_register_writes           7240063                       # number of times the integer registers were written
system.cpu0.num_fp_register_reads                3048                       # number of times the floating registers were read
system.cpu0.num_fp_register_writes               1440                       # number of times the floating registers were written
system.cpu0.num_cc_register_reads             5084303                       # number of times the CC registers were read
system.cpu0.num_cc_register_writes            2792906                       # number of times the CC registers were written
system.cpu0.num_mem_refs                      2084387                       # number of memory refs
system.cpu0.num_load_insts                    1293050                       # Number of load instructions
system.cpu0.num_store_insts                    791337                       # Number of store instructions
system.cpu0.num_idle_cycles              8132253478.116248                       # Number of idle cycles
system.cpu0.num_busy_cycles              21751175.883753                       # Number of busy cycles
system.cpu0.not_idle_fraction                0.002668                       # Percentage of non-idle cycles
system.cpu0.idle_fraction                    0.997332                       # Percentage of idle cycles
system.cpu0.Branches                           959362                       # Number of branches fetched
system.cpu0.op_class::No_OpClass               133106      1.49%      1.49% # Class of executed instruction
system.cpu0.op_class::IntAlu                  6684828     74.59%     76.07% # Class of executed instruction
system.cpu0.op_class::IntMult                   14783      0.16%     76.24% # Class of executed instruction
system.cpu0.op_class::IntDiv                    43902      0.49%     76.73% # Class of executed instruction
system.cpu0.op_class::FloatAdd                   1368      0.02%     76.74% # Class of executed instruction
system.cpu0.op_class::FloatCmp                      0      0.00%     76.74% # Class of executed instruction
system.cpu0.op_class::FloatCvt                      0      0.00%     76.74% # Class of executed instruction
system.cpu0.op_class::FloatMult                     0      0.00%     76.74% # Class of executed instruction
system.cpu0.op_class::FloatDiv                      0      0.00%     76.74% # Class of executed instruction
system.cpu0.op_class::FloatSqrt                     0      0.00%     76.74% # Class of executed instruction
system.cpu0.op_class::SimdAdd                       0      0.00%     76.74% # Class of executed instruction
system.cpu0.op_class::SimdAddAcc                    0      0.00%     76.74% # Class of executed instruction
system.cpu0.op_class::SimdAlu                       0      0.00%     76.74% # Class of executed instruction
system.cpu0.op_class::SimdCmp                       0      0.00%     76.74% # Class of executed instruction
system.cpu0.op_class::SimdCvt                       0      0.00%     76.74% # Class of executed instruction
system.cpu0.op_class::SimdMisc                      0      0.00%     76.74% # Class of executed instruction
system.cpu0.op_class::SimdMult                      0      0.00%     76.74% # Class of executed instruction
system.cpu0.op_class::SimdMultAcc                   0      0.00%     76.74% # Class of executed instruction
system.cpu0.op_class::SimdShift                     0      0.00%     76.74% # Class of executed instruction
system.cpu0.op_class::SimdShiftAcc                  0      0.00%     76.74% # Class of executed instruction
system.cpu0.op_class::SimdSqrt                      0      0.00%     76.74% # Class of executed instruction
system.cpu0.op_class::SimdFloatAdd                  0      0.00%     76.74% # Class of executed instruction
system.cpu0.op_class::SimdFloatAlu                  0      0.00%     76.74% # Class of executed instruction
system.cpu0.op_class::SimdFloatCmp                  0      0.00%     76.74% # Class of executed instruction
system.cpu0.op_class::SimdFloatCvt                  0      0.00%     76.74% # Class of executed instruction
system.cpu0.op_class::SimdFloatDiv                  0      0.00%     76.74% # Class of executed instruction
system.cpu0.op_class::SimdFloatMisc                 0      0.00%     76.74% # Class of executed instruction
system.cpu0.op_class::SimdFloatMult                 0      0.00%     76.74% # Class of executed instruction
system.cpu0.op_class::SimdFloatMultAcc              0      0.00%     76.74% # Class of executed instruction
system.cpu0.op_class::SimdFloatSqrt                 0      0.00%     76.74% # Class of executed instruction
system.cpu0.op_class::MemRead                 1293050     14.43%     91.17% # Class of executed instruction
system.cpu0.op_class::MemWrite                 791337      8.83%    100.00% # Class of executed instruction
system.cpu0.op_class::IprAccess                     0      0.00%    100.00% # Class of executed instruction
system.cpu0.op_class::InstPrefetch                  0      0.00%    100.00% # Class of executed instruction
system.cpu0.op_class::total                   8962374                       # Class of executed instruction
system.cpu1.apic_clk_domain.clock                8000                       # Clock period in ticks
system.cpu1.numCycles                      8157890827                       # number of cpu cycles simulated
system.cpu1.numWorkItemsStarted                     0                       # number of work items this cpu started
system.cpu1.numWorkItemsCompleted                   0                       # number of work items this cpu completed
system.cpu1.kern.inst.arm                           0                       # number of arm instructions executed
system.cpu1.kern.inst.quiesce                       0                       # number of quiesce instructions executed
system.cpu1.committedInsts                    2892372                       # Number of instructions committed
system.cpu1.committedOps                      6215854                       # Number of ops (including micro ops) committed
system.cpu1.num_int_alu_accesses              6081356                       # Number of integer alu accesses
system.cpu1.num_fp_alu_accesses                   154                       # Number of float alu accesses
system.cpu1.num_func_calls                     172437                       # number of times a function call or return occured
system.cpu1.num_conditional_control_insts       433528                       # number of instructions that are conditional controls
system.cpu1.num_int_insts                     6081356                       # number of integer instructions
system.cpu1.num_fp_insts                          154                       # number of float instructions
system.cpu1.num_int_register_reads           12370908                       # number of times the integer registers were read
system.cpu1.num_int_register_writes           5040248                       # number of times the integer registers were written
system.cpu1.num_fp_register_reads                 258                       # number of times the floating registers were read
system.cpu1.num_fp_register_writes                126                       # number of times the floating registers were written
system.cpu1.num_cc_register_reads             3448561                       # number of times the CC registers were read
system.cpu1.num_cc_register_writes            1832191                       # number of times the CC registers were written
system.cpu1.num_mem_refs                      1493762                       # number of memory refs
system.cpu1.num_load_insts                     928875                       # Number of load instructions
system.cpu1.num_store_insts                    564887                       # Number of store instructions
system.cpu1.num_idle_cycles              8143151604.977918                       # Number of idle cycles
system.cpu1.num_busy_cycles              14739222.022082                       # Number of busy cycles
system.cpu1.not_idle_fraction                0.001807                       # Percentage of non-idle cycles
system.cpu1.idle_fraction                    0.998193                       # Percentage of idle cycles
system.cpu1.Branches                           661661                       # Number of branches fetched
system.cpu1.op_class::No_OpClass               112261      1.81%      1.81% # Class of executed instruction
system.cpu1.op_class::IntAlu                  4554712     73.28%     75.08% # Class of executed instruction
system.cpu1.op_class::IntMult                   15655      0.25%     75.33% # Class of executed instruction
system.cpu1.op_class::IntDiv                    39368      0.63%     75.97% # Class of executed instruction
system.cpu1.op_class::FloatAdd                    120      0.00%     75.97% # Class of executed instruction
system.cpu1.op_class::FloatCmp                      0      0.00%     75.97% # Class of executed instruction
system.cpu1.op_class::FloatCvt                      0      0.00%     75.97% # Class of executed instruction
system.cpu1.op_class::FloatMult                     0      0.00%     75.97% # Class of executed instruction
system.cpu1.op_class::FloatDiv                      0      0.00%     75.97% # Class of executed instruction
system.cpu1.op_class::FloatSqrt                     0      0.00%     75.97% # Class of executed instruction
system.cpu1.op_class::SimdAdd                       0      0.00%     75.97% # Class of executed instruction
system.cpu1.op_class::SimdAddAcc                    0      0.00%     75.97% # Class of executed instruction
system.cpu1.op_class::SimdAlu                       0      0.00%     75.97% # Class of executed instruction
system.cpu1.op_class::SimdCmp                       0      0.00%     75.97% # Class of executed instruction
system.cpu1.op_class::SimdCvt                       0      0.00%     75.97% # Class of executed instruction
system.cpu1.op_class::SimdMisc                      0      0.00%     75.97% # Class of executed instruction
system.cpu1.op_class::SimdMult                      0      0.00%     75.97% # Class of executed instruction
system.cpu1.op_class::SimdMultAcc                   0      0.00%     75.97% # Class of executed instruction
system.cpu1.op_class::SimdShift                     0      0.00%     75.97% # Class of executed instruction
system.cpu1.op_class::SimdShiftAcc                  0      0.00%     75.97% # Class of executed instruction
system.cpu1.op_class::SimdSqrt                      0      0.00%     75.97% # Class of executed instruction
system.cpu1.op_class::SimdFloatAdd                  0      0.00%     75.97% # Class of executed instruction
system.cpu1.op_class::SimdFloatAlu                  0      0.00%     75.97% # Class of executed instruction
system.cpu1.op_class::SimdFloatCmp                  0      0.00%     75.97% # Class of executed instruction
system.cpu1.op_class::SimdFloatCvt                  0      0.00%     75.97% # Class of executed instruction
system.cpu1.op_class::SimdFloatDiv                  0      0.00%     75.97% # Class of executed instruction
system.cpu1.op_class::SimdFloatMisc                 0      0.00%     75.97% # Class of executed instruction
system.cpu1.op_class::SimdFloatMult                 0      0.00%     75.97% # Class of executed instruction
system.cpu1.op_class::SimdFloatMultAcc              0      0.00%     75.97% # Class of executed instruction
system.cpu1.op_class::SimdFloatSqrt                 0      0.00%     75.97% # Class of executed instruction
system.cpu1.op_class::MemRead                  928875     14.94%     90.91% # Class of executed instruction
system.cpu1.op_class::MemWrite                 564887      9.09%    100.00% # Class of executed instruction
system.cpu1.op_class::IprAccess                     0      0.00%    100.00% # Class of executed instruction
system.cpu1.op_class::InstPrefetch                  0      0.00%    100.00% # Class of executed instruction
system.cpu1.op_class::total                   6215878                       # Class of executed instruction
system.cpu2.apic_clk_domain.clock                8000                       # Clock period in ticks
system.cpu2.numCycles                      8156374856                       # number of cpu cycles simulated
system.cpu2.numWorkItemsStarted                     0                       # number of work items this cpu started
system.cpu2.numWorkItemsCompleted                   0                       # number of work items this cpu completed
system.cpu2.kern.inst.arm                           0                       # number of arm instructions executed
system.cpu2.kern.inst.quiesce                       0                       # number of quiesce instructions executed
system.cpu2.committedInsts                 2239484101                       # Number of instructions committed
system.cpu2.committedOps                   3131942010                       # Number of ops (including micro ops) committed
system.cpu2.num_int_alu_accesses           1364986581                       # Number of integer alu accesses
system.cpu2.num_fp_alu_accesses            2127680264                       # Number of float alu accesses
system.cpu2.num_func_calls                    4836099                       # number of times a function call or return occured
system.cpu2.num_conditional_control_insts    125343724                       # number of instructions that are conditional controls
system.cpu2.num_int_insts                  1364986581                       # number of integer instructions
system.cpu2.num_fp_insts                   2127680264                       # number of float instructions
system.cpu2.num_int_register_reads         2745482537                       # number of times the integer registers were read
system.cpu2.num_int_register_writes         828468276                       # number of times the integer registers were written
system.cpu2.num_fp_register_reads          4601234004                       # number of times the floating registers were read
system.cpu2.num_fp_register_writes         2077617833                       # number of times the floating registers were written
system.cpu2.num_cc_register_reads           735913098                       # number of times the CC registers were read
system.cpu2.num_cc_register_writes          430148071                       # number of times the CC registers were written
system.cpu2.num_mem_refs                    408329828                       # number of memory refs
system.cpu2.num_load_insts                  353610231                       # Number of load instructions
system.cpu2.num_store_insts                  54719597                       # Number of store instructions
system.cpu2.num_idle_cycles              5458995.771365                       # Number of idle cycles
system.cpu2.num_busy_cycles              8150915860.228636                       # Number of busy cycles
system.cpu2.not_idle_fraction                0.999331                       # Percentage of non-idle cycles
system.cpu2.idle_fraction                    0.000669                       # Percentage of idle cycles
system.cpu2.Branches                        163308654                       # Number of branches fetched
system.cpu2.op_class::No_OpClass              2282430      0.07%      0.07% # Class of executed instruction
system.cpu2.op_class::IntAlu               1676664090     53.53%     53.61% # Class of executed instruction
system.cpu2.op_class::IntMult                   79326      0.00%     53.61% # Class of executed instruction
system.cpu2.op_class::IntDiv                    99346      0.00%     53.61% # Class of executed instruction
system.cpu2.op_class::FloatAdd             1044495651     33.35%     86.96% # Class of executed instruction
system.cpu2.op_class::FloatCmp                      0      0.00%     86.96% # Class of executed instruction
system.cpu2.op_class::FloatCvt                      0      0.00%     86.96% # Class of executed instruction
system.cpu2.op_class::FloatMult                     0      0.00%     86.96% # Class of executed instruction
system.cpu2.op_class::FloatDiv                      0      0.00%     86.96% # Class of executed instruction
system.cpu2.op_class::FloatSqrt                     0      0.00%     86.96% # Class of executed instruction
system.cpu2.op_class::SimdAdd                       0      0.00%     86.96% # Class of executed instruction
system.cpu2.op_class::SimdAddAcc                    0      0.00%     86.96% # Class of executed instruction
system.cpu2.op_class::SimdAlu                       0      0.00%     86.96% # Class of executed instruction
system.cpu2.op_class::SimdCmp                       0      0.00%     86.96% # Class of executed instruction
system.cpu2.op_class::SimdCvt                       0      0.00%     86.96% # Class of executed instruction
system.cpu2.op_class::SimdMisc                      0      0.00%     86.96% # Class of executed instruction
system.cpu2.op_class::SimdMult                      0      0.00%     86.96% # Class of executed instruction
system.cpu2.op_class::SimdMultAcc                   0      0.00%     86.96% # Class of executed instruction
system.cpu2.op_class::SimdShift                     0      0.00%     86.96% # Class of executed instruction
system.cpu2.op_class::SimdShiftAcc                  0      0.00%     86.96% # Class of executed instruction
system.cpu2.op_class::SimdSqrt                      0      0.00%     86.96% # Class of executed instruction
system.cpu2.op_class::SimdFloatAdd                  0      0.00%     86.96% # Class of executed instruction
system.cpu2.op_class::SimdFloatAlu                  0      0.00%     86.96% # Class of executed instruction
system.cpu2.op_class::SimdFloatCmp                  0      0.00%     86.96% # Class of executed instruction
system.cpu2.op_class::SimdFloatCvt                  0      0.00%     86.96% # Class of executed instruction
system.cpu2.op_class::SimdFloatDiv                  0      0.00%     86.96% # Class of executed instruction
system.cpu2.op_class::SimdFloatMisc                 0      0.00%     86.96% # Class of executed instruction
system.cpu2.op_class::SimdFloatMult                 0      0.00%     86.96% # Class of executed instruction
system.cpu2.op_class::SimdFloatMultAcc              0      0.00%     86.96% # Class of executed instruction
system.cpu2.op_class::SimdFloatSqrt                 0      0.00%     86.96% # Class of executed instruction
system.cpu2.op_class::MemRead               353610231     11.29%     98.25% # Class of executed instruction
system.cpu2.op_class::MemWrite               54719597      1.75%    100.00% # Class of executed instruction
system.cpu2.op_class::IprAccess                     0      0.00%    100.00% # Class of executed instruction
system.cpu2.op_class::InstPrefetch                  0      0.00%    100.00% # Class of executed instruction
system.cpu2.op_class::total                3131950671                       # Class of executed instruction
system.cpu3.apic_clk_domain.clock                8000                       # Clock period in ticks
system.cpu3.numCycles                      8155569999                       # number of cpu cycles simulated
system.cpu3.numWorkItemsStarted                     0                       # number of work items this cpu started
system.cpu3.numWorkItemsCompleted                   0                       # number of work items this cpu completed
system.cpu3.kern.inst.arm                           0                       # number of arm instructions executed
system.cpu3.kern.inst.quiesce                       0                       # number of quiesce instructions executed
system.cpu3.committedInsts                    2890156                       # Number of instructions committed
system.cpu3.committedOps                      6243030                       # Number of ops (including micro ops) committed
system.cpu3.num_int_alu_accesses              6104653                       # Number of integer alu accesses
system.cpu3.num_fp_alu_accesses                     0                       # Number of float alu accesses
system.cpu3.num_func_calls                     172098                       # number of times a function call or return occured
system.cpu3.num_conditional_control_insts       438906                       # number of instructions that are conditional controls
system.cpu3.num_int_insts                     6104653                       # number of integer instructions
system.cpu3.num_fp_insts                            0                       # number of float instructions
system.cpu3.num_int_register_reads           12410116                       # number of times the integer registers were read
system.cpu3.num_int_register_writes           5070142                       # number of times the integer registers were written
system.cpu3.num_fp_register_reads                   0                       # number of times the floating registers were read
system.cpu3.num_fp_register_writes                  0                       # number of times the floating registers were written
system.cpu3.num_cc_register_reads             3517767                       # number of times the CC registers were read
system.cpu3.num_cc_register_writes            1844019                       # number of times the CC registers were written
system.cpu3.num_mem_refs                      1484716                       # number of memory refs
system.cpu3.num_load_insts                     922964                       # Number of load instructions
system.cpu3.num_store_insts                    561752                       # Number of store instructions
system.cpu3.num_idle_cycles              8140681490.006720                       # Number of idle cycles
system.cpu3.num_busy_cycles              14888508.993280                       # Number of busy cycles
system.cpu3.not_idle_fraction                0.001826                       # Percentage of non-idle cycles
system.cpu3.idle_fraction                    0.998174                       # Percentage of idle cycles
system.cpu3.Branches                           667237                       # Number of branches fetched
system.cpu3.op_class::No_OpClass               118546      1.90%      1.90% # Class of executed instruction
system.cpu3.op_class::IntAlu                  4584321     73.43%     75.33% # Class of executed instruction
system.cpu3.op_class::IntMult                   12631      0.20%     75.53% # Class of executed instruction
system.cpu3.op_class::IntDiv                    42819      0.69%     76.22% # Class of executed instruction
system.cpu3.op_class::FloatAdd                      0      0.00%     76.22% # Class of executed instruction
system.cpu3.op_class::FloatCmp                      0      0.00%     76.22% # Class of executed instruction
system.cpu3.op_class::FloatCvt                      0      0.00%     76.22% # Class of executed instruction
system.cpu3.op_class::FloatMult                     0      0.00%     76.22% # Class of executed instruction
system.cpu3.op_class::FloatDiv                      0      0.00%     76.22% # Class of executed instruction
system.cpu3.op_class::FloatSqrt                     0      0.00%     76.22% # Class of executed instruction
system.cpu3.op_class::SimdAdd                       0      0.00%     76.22% # Class of executed instruction
system.cpu3.op_class::SimdAddAcc                    0      0.00%     76.22% # Class of executed instruction
system.cpu3.op_class::SimdAlu                       0      0.00%     76.22% # Class of executed instruction
system.cpu3.op_class::SimdCmp                       0      0.00%     76.22% # Class of executed instruction
system.cpu3.op_class::SimdCvt                       0      0.00%     76.22% # Class of executed instruction
system.cpu3.op_class::SimdMisc                      0      0.00%     76.22% # Class of executed instruction
system.cpu3.op_class::SimdMult                      0      0.00%     76.22% # Class of executed instruction
system.cpu3.op_class::SimdMultAcc                   0      0.00%     76.22% # Class of executed instruction
system.cpu3.op_class::SimdShift                     0      0.00%     76.22% # Class of executed instruction
system.cpu3.op_class::SimdShiftAcc                  0      0.00%     76.22% # Class of executed instruction
system.cpu3.op_class::SimdSqrt                      0      0.00%     76.22% # Class of executed instruction
system.cpu3.op_class::SimdFloatAdd                  0      0.00%     76.22% # Class of executed instruction
system.cpu3.op_class::SimdFloatAlu                  0      0.00%     76.22% # Class of executed instruction
system.cpu3.op_class::SimdFloatCmp                  0      0.00%     76.22% # Class of executed instruction
system.cpu3.op_class::SimdFloatCvt                  0      0.00%     76.22% # Class of executed instruction
system.cpu3.op_class::SimdFloatDiv                  0      0.00%     76.22% # Class of executed instruction
system.cpu3.op_class::SimdFloatMisc                 0      0.00%     76.22% # Class of executed instruction
system.cpu3.op_class::SimdFloatMult                 0      0.00%     76.22% # Class of executed instruction
system.cpu3.op_class::SimdFloatMultAcc              0      0.00%     76.22% # Class of executed instruction
system.cpu3.op_class::SimdFloatSqrt                 0      0.00%     76.22% # Class of executed instruction
system.cpu3.op_class::MemRead                  922964     14.78%     91.00% # Class of executed instruction
system.cpu3.op_class::MemWrite                 561752      9.00%    100.00% # Class of executed instruction
system.cpu3.op_class::IprAccess                     0      0.00%    100.00% # Class of executed instruction
system.cpu3.op_class::InstPrefetch                  0      0.00%    100.00% # Class of executed instruction
system.cpu3.op_class::total                   6243033                       # Class of executed instruction
system.iobus.trans_dist::ReadReq                  200                       # Transaction distribution
system.iobus.trans_dist::ReadResp                 200                       # Transaction distribution
system.iobus.trans_dist::WriteReq                4221                       # Transaction distribution
system.iobus.trans_dist::WriteResp               4221                       # Transaction distribution
system.iobus.trans_dist::MessageReq                19                       # Transaction distribution
system.iobus.trans_dist::MessageResp               19                       # Transaction distribution
system.iobus.pkt_count_system.pc.south_bridge.io_apic.int_master::system.ruby.l0_cntrl0.sequencer.pio-slave-port            6                       # Packet count per connected master and slave (bytes)
system.iobus.pkt_count_system.pc.south_bridge.io_apic.int_master::system.ruby.l0_cntrl1.sequencer.pio-slave-port            4                       # Packet count per connected master and slave (bytes)
system.iobus.pkt_count_system.pc.south_bridge.io_apic.int_master::system.ruby.l0_cntrl2.sequencer.pio-slave-port            4                       # Packet count per connected master and slave (bytes)
system.iobus.pkt_count_system.pc.south_bridge.io_apic.int_master::system.ruby.l0_cntrl3.sequencer.pio-slave-port            6                       # Packet count per connected master and slave (bytes)
system.iobus.pkt_count_system.pc.south_bridge.io_apic.int_master::total           20                       # Packet count per connected master and slave (bytes)
system.iobus.pkt_count_system.ruby.l0_cntrl0.sequencer.mem-master-port::system.pc.south_bridge.ide.pio           46                       # Packet count per connected master and slave (bytes)
system.iobus.pkt_count_system.ruby.l0_cntrl0.sequencer.mem-master-port::system.pc.south_bridge.io_apic.pio           16                       # Packet count per connected master and slave (bytes)
system.iobus.pkt_count_system.ruby.l0_cntrl0.sequencer.mem-master-port::system.ruby.l0_cntrl0.sequencer.pio-slave-port         2066                       # Packet count per connected master and slave (bytes)
system.iobus.pkt_count_system.ruby.l0_cntrl0.sequencer.mem-master-port::system.ruby.l0_cntrl1.sequencer.pio-slave-port            2                       # Packet count per connected master and slave (bytes)
system.iobus.pkt_count_system.ruby.l0_cntrl0.sequencer.mem-master-port::system.ruby.l0_cntrl2.sequencer.pio-slave-port            2                       # Packet count per connected master and slave (bytes)
system.iobus.pkt_count_system.ruby.l0_cntrl0.sequencer.mem-master-port::system.ruby.l0_cntrl3.sequencer.pio-slave-port            2                       # Packet count per connected master and slave (bytes)
system.iobus.pkt_count_system.ruby.l0_cntrl0.sequencer.mem-master-port::total         2134                       # Packet count per connected master and slave (bytes)
system.iobus.pkt_count_system.ruby.l0_cntrl1.sequencer.mem-master-port::system.pc.south_bridge.ide.pio           12                       # Packet count per connected master and slave (bytes)
system.iobus.pkt_count_system.ruby.l0_cntrl1.sequencer.mem-master-port::system.pc.south_bridge.io_apic.pio            8                       # Packet count per connected master and slave (bytes)
system.iobus.pkt_count_system.ruby.l0_cntrl1.sequencer.mem-master-port::system.ruby.l0_cntrl1.sequencer.pio-slave-port         2054                       # Packet count per connected master and slave (bytes)
system.iobus.pkt_count_system.ruby.l0_cntrl1.sequencer.mem-master-port::system.ruby.l0_cntrl2.sequencer.pio-slave-port            2                       # Packet count per connected master and slave (bytes)
system.iobus.pkt_count_system.ruby.l0_cntrl1.sequencer.mem-master-port::total         2076                       # Packet count per connected master and slave (bytes)
system.iobus.pkt_count_system.ruby.l0_cntrl2.sequencer.mem-master-port::system.pc.south_bridge.ide.pio           34                       # Packet count per connected master and slave (bytes)
system.iobus.pkt_count_system.ruby.l0_cntrl2.sequencer.mem-master-port::system.pc.south_bridge.io_apic.pio           12                       # Packet count per connected master and slave (bytes)
system.iobus.pkt_count_system.ruby.l0_cntrl2.sequencer.mem-master-port::system.pc.com_1.pio          196                       # Packet count per connected master and slave (bytes)
system.iobus.pkt_count_system.ruby.l0_cntrl2.sequencer.mem-master-port::system.ruby.l0_cntrl1.sequencer.pio-slave-port            2                       # Packet count per connected master and slave (bytes)
system.iobus.pkt_count_system.ruby.l0_cntrl2.sequencer.mem-master-port::system.ruby.l0_cntrl2.sequencer.pio-slave-port         2072                       # Packet count per connected master and slave (bytes)
system.iobus.pkt_count_system.ruby.l0_cntrl2.sequencer.mem-master-port::system.ruby.l0_cntrl3.sequencer.pio-slave-port            6                       # Packet count per connected master and slave (bytes)
system.iobus.pkt_count_system.ruby.l0_cntrl2.sequencer.mem-master-port::total         2322                       # Packet count per connected master and slave (bytes)
system.iobus.pkt_count_system.ruby.l0_cntrl3.sequencer.mem-master-port::system.pc.south_bridge.io_apic.pio           22                       # Packet count per connected master and slave (bytes)
system.iobus.pkt_count_system.ruby.l0_cntrl3.sequencer.mem-master-port::system.pc.com_1.pio          244                       # Packet count per connected master and slave (bytes)
system.iobus.pkt_count_system.ruby.l0_cntrl3.sequencer.mem-master-port::system.ruby.l0_cntrl0.sequencer.pio-slave-port            2                       # Packet count per connected master and slave (bytes)
system.iobus.pkt_count_system.ruby.l0_cntrl3.sequencer.mem-master-port::system.ruby.l0_cntrl3.sequencer.pio-slave-port         2060                       # Packet count per connected master and slave (bytes)
system.iobus.pkt_count_system.ruby.l0_cntrl3.sequencer.mem-master-port::total         2328                       # Packet count per connected master and slave (bytes)
system.iobus.pkt_count::total                    8880                       # Packet count per connected master and slave (bytes)
system.iobus.pkt_size_system.pc.south_bridge.io_apic.int_master::system.ruby.l0_cntrl0.sequencer.pio-slave-port           12                       # Cumulative packet size per connected master and slave (bytes)
system.iobus.pkt_size_system.pc.south_bridge.io_apic.int_master::system.ruby.l0_cntrl1.sequencer.pio-slave-port            8                       # Cumulative packet size per connected master and slave (bytes)
system.iobus.pkt_size_system.pc.south_bridge.io_apic.int_master::system.ruby.l0_cntrl2.sequencer.pio-slave-port            8                       # Cumulative packet size per connected master and slave (bytes)
system.iobus.pkt_size_system.pc.south_bridge.io_apic.int_master::system.ruby.l0_cntrl3.sequencer.pio-slave-port           12                       # Cumulative packet size per connected master and slave (bytes)
system.iobus.pkt_size_system.pc.south_bridge.io_apic.int_master::total           40                       # Cumulative packet size per connected master and slave (bytes)
system.iobus.pkt_size_system.ruby.l0_cntrl0.sequencer.mem-master-port::system.pc.south_bridge.ide.pio           26                       # Cumulative packet size per connected master and slave (bytes)
system.iobus.pkt_size_system.ruby.l0_cntrl0.sequencer.mem-master-port::system.pc.south_bridge.io_apic.pio           32                       # Cumulative packet size per connected master and slave (bytes)
system.iobus.pkt_size_system.ruby.l0_cntrl0.sequencer.mem-master-port::system.ruby.l0_cntrl0.sequencer.pio-slave-port         4132                       # Cumulative packet size per connected master and slave (bytes)
system.iobus.pkt_size_system.ruby.l0_cntrl0.sequencer.mem-master-port::system.ruby.l0_cntrl1.sequencer.pio-slave-port            4                       # Cumulative packet size per connected master and slave (bytes)
system.iobus.pkt_size_system.ruby.l0_cntrl0.sequencer.mem-master-port::system.ruby.l0_cntrl2.sequencer.pio-slave-port            4                       # Cumulative packet size per connected master and slave (bytes)
system.iobus.pkt_size_system.ruby.l0_cntrl0.sequencer.mem-master-port::system.ruby.l0_cntrl3.sequencer.pio-slave-port            4                       # Cumulative packet size per connected master and slave (bytes)
system.iobus.pkt_size_system.ruby.l0_cntrl0.sequencer.mem-master-port::total         4202                       # Cumulative packet size per connected master and slave (bytes)
system.iobus.pkt_size_system.ruby.l0_cntrl1.sequencer.mem-master-port::system.pc.south_bridge.ide.pio            6                       # Cumulative packet size per connected master and slave (bytes)
system.iobus.pkt_size_system.ruby.l0_cntrl1.sequencer.mem-master-port::system.pc.south_bridge.io_apic.pio           16                       # Cumulative packet size per connected master and slave (bytes)
system.iobus.pkt_size_system.ruby.l0_cntrl1.sequencer.mem-master-port::system.ruby.l0_cntrl1.sequencer.pio-slave-port         4108                       # Cumulative packet size per connected master and slave (bytes)
system.iobus.pkt_size_system.ruby.l0_cntrl1.sequencer.mem-master-port::system.ruby.l0_cntrl2.sequencer.pio-slave-port            4                       # Cumulative packet size per connected master and slave (bytes)
system.iobus.pkt_size_system.ruby.l0_cntrl1.sequencer.mem-master-port::total         4134                       # Cumulative packet size per connected master and slave (bytes)
system.iobus.pkt_size_system.ruby.l0_cntrl2.sequencer.mem-master-port::system.pc.south_bridge.ide.pio           20                       # Cumulative packet size per connected master and slave (bytes)
system.iobus.pkt_size_system.ruby.l0_cntrl2.sequencer.mem-master-port::system.pc.south_bridge.io_apic.pio           24                       # Cumulative packet size per connected master and slave (bytes)
system.iobus.pkt_size_system.ruby.l0_cntrl2.sequencer.mem-master-port::system.pc.com_1.pio           98                       # Cumulative packet size per connected master and slave (bytes)
system.iobus.pkt_size_system.ruby.l0_cntrl2.sequencer.mem-master-port::system.ruby.l0_cntrl1.sequencer.pio-slave-port            4                       # Cumulative packet size per connected master and slave (bytes)
system.iobus.pkt_size_system.ruby.l0_cntrl2.sequencer.mem-master-port::system.ruby.l0_cntrl2.sequencer.pio-slave-port         4144                       # Cumulative packet size per connected master and slave (bytes)
system.iobus.pkt_size_system.ruby.l0_cntrl2.sequencer.mem-master-port::system.ruby.l0_cntrl3.sequencer.pio-slave-port           12                       # Cumulative packet size per connected master and slave (bytes)
system.iobus.pkt_size_system.ruby.l0_cntrl2.sequencer.mem-master-port::total         4302                       # Cumulative packet size per connected master and slave (bytes)
system.iobus.pkt_size_system.ruby.l0_cntrl3.sequencer.mem-master-port::system.pc.south_bridge.io_apic.pio           44                       # Cumulative packet size per connected master and slave (bytes)
system.iobus.pkt_size_system.ruby.l0_cntrl3.sequencer.mem-master-port::system.pc.com_1.pio          122                       # Cumulative packet size per connected master and slave (bytes)
system.iobus.pkt_size_system.ruby.l0_cntrl3.sequencer.mem-master-port::system.ruby.l0_cntrl0.sequencer.pio-slave-port            4                       # Cumulative packet size per connected master and slave (bytes)
system.iobus.pkt_size_system.ruby.l0_cntrl3.sequencer.mem-master-port::system.ruby.l0_cntrl3.sequencer.pio-slave-port         4120                       # Cumulative packet size per connected master and slave (bytes)
system.iobus.pkt_size_system.ruby.l0_cntrl3.sequencer.mem-master-port::total         4290                       # Cumulative packet size per connected master and slave (bytes)
system.iobus.pkt_size::total                    16968                       # Cumulative packet size per connected master and slave (bytes)
system.iobus.reqLayer2.occupancy                81500                       # Layer occupancy (ticks)
system.iobus.reqLayer2.utilization                0.0                       # Layer utilization (%)
system.iobus.reqLayer8.occupancy                51995                       # Layer occupancy (ticks)
system.iobus.reqLayer8.utilization                0.0                       # Layer utilization (%)
system.iobus.reqLayer12.occupancy              283500                       # Layer occupancy (ticks)
system.iobus.reqLayer12.utilization               0.0                       # Layer utilization (%)
system.iobus.reqLayer17.occupancy             2539997                       # Layer occupancy (ticks)
system.iobus.reqLayer17.utilization               0.0                       # Layer utilization (%)
system.iobus.reqLayer18.occupancy             2544499                       # Layer occupancy (ticks)
system.iobus.reqLayer18.utilization               0.0                       # Layer utilization (%)
system.iobus.reqLayer19.occupancy             2851479                       # Layer occupancy (ticks)
system.iobus.reqLayer19.utilization               0.0                       # Layer utilization (%)
system.iobus.reqLayer20.occupancy             2547000                       # Layer occupancy (ticks)
system.iobus.reqLayer20.utilization               0.0                       # Layer utilization (%)
system.iobus.respLayer0.occupancy               13998                       # Layer occupancy (ticks)
system.iobus.respLayer0.utilization               0.0                       # Layer utilization (%)
system.iobus.respLayer2.occupancy             1598500                       # Layer occupancy (ticks)
system.iobus.respLayer2.utilization               0.0                       # Layer utilization (%)
system.iobus.respLayer4.occupancy             1558500                       # Layer occupancy (ticks)
system.iobus.respLayer4.utilization               0.0                       # Layer utilization (%)
system.iobus.respLayer6.occupancy             1763000                       # Layer occupancy (ticks)
system.iobus.respLayer6.utilization               0.0                       # Layer utilization (%)
system.iobus.respLayer8.occupancy             1774500                       # Layer occupancy (ticks)
system.iobus.respLayer8.utilization               0.0                       # Layer utilization (%)
system.pc.south_bridge.ide.disks.dma_read_full_pages            1                       # Number of full page size DMA reads (not PRD).
system.pc.south_bridge.ide.disks.dma_read_bytes         4096                       # Number of bytes transfered via DMA reads (not PRD).
system.pc.south_bridge.ide.disks.dma_read_txs            1                       # Number of DMA read transactions (not PRD).
system.pc.south_bridge.ide.disks.dma_write_full_pages           24                       # Number of full page size DMA writes.
system.pc.south_bridge.ide.disks.dma_write_bytes        98304                       # Number of bytes transfered via DMA writes.
system.pc.south_bridge.ide.disks.dma_write_txs           24                       # Number of DMA write transactions.
system.ruby.clk_domain.clock                      500                       # Clock period in ticks
system.ruby.delayHist::bucket_size                  4                       # delay histogram for all message
system.ruby.delayHist::max_bucket                  39                       # delay histogram for all message
system.ruby.delayHist::samples              133187866                       # delay histogram for all message
system.ruby.delayHist::mean                  0.113335                       # delay histogram for all message
system.ruby.delayHist::stdev                 0.945206                       # delay histogram for all message
system.ruby.delayHist                    |   131302934     98.58%     98.58% |        2946      0.00%     98.59% |     1881533      1.41%    100.00% |         155      0.00%    100.00% |         271      0.00%    100.00% |          10      0.00%    100.00% |          17      0.00%    100.00% |           0      0.00%    100.00% |           0      0.00%    100.00% |           0      0.00%    100.00% # delay histogram for all message
system.ruby.delayHist::total                133187866                       # delay histogram for all message
system.ruby.outstanding_req_hist_seqr::bucket_size            1                      
system.ruby.outstanding_req_hist_seqr::max_bucket            9                      
system.ruby.outstanding_req_hist_seqr::samples   3806628384                      
system.ruby.outstanding_req_hist_seqr::mean     1.000000                      
system.ruby.outstanding_req_hist_seqr::gmean     1.000000                      
system.ruby.outstanding_req_hist_seqr::stdev     0.000230                      
system.ruby.outstanding_req_hist_seqr    |           0      0.00%      0.00% |  3806628182    100.00%    100.00% |         202      0.00%    100.00% |           0      0.00%    100.00% |           0      0.00%    100.00% |           0      0.00%    100.00% |           0      0.00%    100.00% |           0      0.00%    100.00% |           0      0.00%    100.00% |           0      0.00%    100.00%
system.ruby.outstanding_req_hist_seqr::total   3806628384                      
system.ruby.latency_hist_seqr::bucket_size          256                      
system.ruby.latency_hist_seqr::max_bucket         2559                      
system.ruby.latency_hist_seqr::samples     3806628384                      
system.ruby.latency_hist_seqr::mean          1.153927                      
system.ruby.latency_hist_seqr::gmean         1.038001                      
system.ruby.latency_hist_seqr::stdev         2.646777                      
system.ruby.latency_hist_seqr            |  3806586204    100.00%    100.00% |       30659      0.00%    100.00% |       10939      0.00%    100.00% |         346      0.00%    100.00% |         222      0.00%    100.00% |          14      0.00%    100.00% |           0      0.00%    100.00% |           0      0.00%    100.00% |           0      0.00%    100.00% |           0      0.00%    100.00%
system.ruby.latency_hist_seqr::total       3806628384                      
system.ruby.hit_latency_hist_seqr::bucket_size            1                      
system.ruby.hit_latency_hist_seqr::max_bucket            9                      
system.ruby.hit_latency_hist_seqr::samples   3729034286                      
system.ruby.hit_latency_hist_seqr::mean             1                      
system.ruby.hit_latency_hist_seqr::gmean            1                      
system.ruby.hit_latency_hist_seqr        |           0      0.00%      0.00% |  3729034286    100.00%    100.00% |           0      0.00%    100.00% |           0      0.00%    100.00% |           0      0.00%    100.00% |           0      0.00%    100.00% |           0      0.00%    100.00% |           0      0.00%    100.00% |           0      0.00%    100.00% |           0      0.00%    100.00%
[...]
system.ruby.L1Cache_Controller.I.Store::total       705865                      
system.ruby.L1Cache_Controller.I.Inv     |        5872     24.74%     24.74% |        6395     26.94%     51.67% |        6504     27.40%     79.07% |        4968     20.93%    100.00%
system.ruby.L1Cache_Controller.I.Inv::total        23739                      
system.ruby.L1Cache_Controller.S.Load    |      289183     27.17%     27.17% |      260660     24.49%     51.65% |      241955     22.73%     74.38% |      272675     25.62%    100.00%
system.ruby.L1Cache_Controller.S.Load::total      1064473                      
system.ruby.L1Cache_Controller.S.Store   |        6349     43.42%     43.42% |        2486     17.00%     60.42% |        2880     19.70%     80.12% |        2907     19.88%    100.00%
system.ruby.L1Cache_Controller.S.Store::total        14622                      
system.ruby.L1Cache_Controller.S.L0_Invalidate_Own |       62636     17.89%     17.89% |       55717     15.91%     33.79% |      173875     49.65%     83.44% |       57983     16.56%    100.00%
system.ruby.L1Cache_Controller.S.L0_Invalidate_Own::total       350211                      
system.ruby.L1Cache_Controller.S.L0_Invalidate_Else |        4703     18.76%     18.76% |        8803     35.12%     53.88% |        2589     10.33%     64.21% |        8971     35.79%    100.00%
system.ruby.L1Cache_Controller.S.L0_Invalidate_Else::total        25066                      
system.ruby.L1Cache_Controller.SS.Load   |        4287     50.36%     50.36% |        2205     25.90%     76.26% |         477      5.60%     81.86% |        1544     18.14%    100.00%
system.ruby.L1Cache_Controller.SS.Load::total         8513                      
system.ruby.L1Cache_Controller.SS.Store  |        1428     89.25%     89.25% |          86      5.38%     94.62% |          50      3.12%     97.75% |          36      2.25%    100.00%
system.ruby.L1Cache_Controller.SS.Store::total         1600                      
system.ruby.L1Cache_Controller.SS.Inv    |        8088     21.05%     21.05% |       13461     35.04%     56.09% |        3891     10.13%     66.22% |       12979     33.78%    100.00%
system.ruby.L1Cache_Controller.SS.Inv::total        38419                      
system.ruby.L1Cache_Controller.SS.L1_Replacement |       63402     17.82%     17.82% |       56520     15.89%     33.71% |      175838     49.42%     83.13% |       60032     16.87%    100.00%
system.ruby.L1Cache_Controller.SS.L1_Replacement::total       355792                      
system.ruby.L1Cache_Controller.E.WriteBack |       59079      0.72%      0.72% |       43128      0.52%      1.24% |     8104103     98.19%     99.43% |       47292      0.57%    100.00%
system.ruby.L1Cache_Controller.E.WriteBack::total      8253602                      
system.ruby.L1Cache_Controller.E.L0_Invalidate_Own |         715      0.05%      0.05% |         397      0.03%      0.08% |     1320132     99.88%     99.97% |         450      0.03%    100.00%
system.ruby.L1Cache_Controller.E.L0_Invalidate_Own::total      1321694                      
system.ruby.L1Cache_Controller.E.L0_Invalidate_Else |         282     17.44%     17.44% |         658     40.69%     58.13% |         112      6.93%     65.06% |         565     34.94%    100.00%
system.ruby.L1Cache_Controller.E.L0_Invalidate_Else::total         1617                      
system.ruby.L1Cache_Controller.EE.Inv    |         112     31.11%     31.11% |          75     20.83%     51.94% |           0      0.00%     51.94% |         173     48.06%    100.00%
system.ruby.L1Cache_Controller.EE.Inv::total          360                      
system.ruby.L1Cache_Controller.EE.L1_Replacement |         655      0.05%      0.05% |         321      0.02%      0.07% |     1319810     99.90%     99.97% |         349      0.03%    100.00%
system.ruby.L1Cache_Controller.EE.L1_Replacement::total      1321135                      
system.ruby.L1Cache_Controller.EE.Fwd_GETX |           9     60.00%     60.00% |           2     13.33%     73.33% |           2     13.33%     86.67% |           2     13.33%    100.00%
system.ruby.L1Cache_Controller.EE.Fwd_GETX::total           15                      
system.ruby.L1Cache_Controller.EE.Fwd_GETS |          76      8.03%      8.03% |         495     52.27%     60.30% |          90      9.50%     69.80% |         286     30.20%    100.00%
system.ruby.L1Cache_Controller.EE.Fwd_GETS::total          947                      
system.ruby.L1Cache_Controller.M.WriteBack |      266008      0.40%      0.40% |      177857      0.27%      0.67% |    65541481     99.08%     99.75% |      166865      0.25%    100.00%
system.ruby.L1Cache_Controller.M.WriteBack::total     66152211                      
system.ruby.L1Cache_Controller.M.L0_Invalidate_Own |        3928      0.36%      0.36% |        2879      0.26%      0.63% |     1077659     99.15%     99.77% |        2481      0.23%    100.00%
system.ruby.L1Cache_Controller.M.L0_Invalidate_Own::total      1086947                      
system.ruby.L1Cache_Controller.M.L0_Invalidate_Else |        4892     41.77%     41.77% |        3117     26.61%     68.38% |         891      7.61%     75.98% |        2813     24.02%    100.00%
system.ruby.L1Cache_Controller.M.L0_Invalidate_Else::total        11713                      
system.ruby.L1Cache_Controller.MM.Load   |      178415      0.28%      0.28% |      112978      0.18%      0.45% |    63827251     99.39%     99.84% |      103351      0.16%    100.00%
system.ruby.L1Cache_Controller.MM.Load::total     64221995                      
system.ruby.L1Cache_Controller.MM.Store  |       62524      2.71%      2.71% |       51269      2.22%      4.93% |     2144360     92.96%     97.89% |       48636      2.11%    100.00%
system.ruby.L1Cache_Controller.MM.Store::total      2306789                      
system.ruby.L1Cache_Controller.MM.Inv    |        3598     39.93%     39.93% |        2891     32.08%     72.01% |          18      0.20%     72.21% |        2504     27.79%    100.00%
system.ruby.L1Cache_Controller.MM.Inv::total         9011                      
system.ruby.L1Cache_Controller.MM.L1_Replacement |       77925      0.87%      0.87% |       51785      0.58%      1.45% |     8748466     97.91%     99.37% |       56617      0.63%    100.00%
system.ruby.L1Cache_Controller.MM.L1_Replacement::total      8934793                      
system.ruby.L1Cache_Controller.MM.Fwd_GETX |        2171     44.81%     44.81% |         997     20.58%     65.39% |         890     18.37%     83.76% |         787     16.24%    100.00%
system.ruby.L1Cache_Controller.MM.Fwd_GETX::total         4845                      
system.ruby.L1Cache_Controller.MM.Fwd_GETS |        9864     35.45%     35.45% |        6992     25.13%     60.58% |        3692     13.27%     73.84% |        7278     26.16%    100.00%
system.ruby.L1Cache_Controller.MM.Fwd_GETS::total        27826                      
system.ruby.L1Cache_Controller.IS.Data_Exclusive |       60052      0.63%      0.63% |       44192      0.46%      1.09% |     9424345     98.41%     99.50% |       48322      0.50%    100.00%
system.ruby.L1Cache_Controller.IS.Data_Exclusive::total      9576911                      
system.ruby.L1Cache_Controller.IS.DataS_fromL1 |        7664     26.64%     26.64% |        9652     33.54%     60.18% |        3808     13.23%     73.41% |        7650     26.59%    100.00%
system.ruby.L1Cache_Controller.IS.DataS_fromL1::total        28774                      
system.ruby.L1Cache_Controller.IS.Data_all_Acks |       62077     17.58%     17.58% |       55244     15.65%     33.23% |      175282     49.65%     82.88% |       60454     17.12%    100.00%
system.ruby.L1Cache_Controller.IS.Data_all_Acks::total       353057                      
system.ruby.L1Cache_Controller.IM.Data   |        2780     43.59%     43.59% |         326      5.11%     48.70% |        1254     19.66%     68.36% |        2018     31.64%    100.00%
system.ruby.L1Cache_Controller.IM.Data::total         6378                      
system.ruby.L1Cache_Controller.IM.Data_all_Acks |       23318      3.33%      3.33% |       16712      2.39%      5.72% |      644233     92.10%     97.82% |       15228      2.18%    100.00%
system.ruby.L1Cache_Controller.IM.Data_all_Acks::total       699491                      
system.ruby.L1Cache_Controller.SM.Inv    |           0      0.00%      0.00% |           0      0.00%      0.00% |           1     25.00%     25.00% |           3     75.00%    100.00%
system.ruby.L1Cache_Controller.SM.Inv::total            4                      
system.ruby.L1Cache_Controller.SM.Ack    |       21942     52.63%     52.63% |        4096      9.83%     62.46% |        8789     21.08%     83.54% |        6862     16.46%    100.00%
system.ruby.L1Cache_Controller.SM.Ack::total        41689                      
system.ruby.L1Cache_Controller.SM.Ack_all |       10557     46.72%     46.72% |        2898     12.83%     59.55% |        4183     18.51%     78.06% |        4958     21.94%    100.00%
system.ruby.L1Cache_Controller.SM.Ack_all::total        22596                      
system.ruby.L1Cache_Controller.M_I.Fwd_GETS |           0      0.00%      0.00% |           0      0.00%      0.00% |           0      0.00%      0.00% |           1    100.00%    100.00%
system.ruby.L1Cache_Controller.M_I.Fwd_GETS::total            1                      
system.ruby.L1Cache_Controller.M_I.WB_Ack |       78580      0.77%      0.77% |       52106      0.51%      1.27% |    10068276     98.17%     99.44% |       56965      0.56%    100.00%
system.ruby.L1Cache_Controller.M_I.WB_Ack::total     10255927                      
system.ruby.L1Cache_Controller.SINK_WB_ACK.WB_Ack |           0      0.00%      0.00% |           0      0.00%      0.00% |           0      0.00%      0.00% |           1    100.00%    100.00%
system.ruby.L1Cache_Controller.SINK_WB_ACK.WB_Ack::total            1                      
system.ruby.L1Cache_Controller.S_IL0.L0_Invalidate_Own |       62636     17.89%     17.89% |       55717     15.91%     33.79% |      173875     49.65%     83.44% |       57983     16.56%    100.00%
system.ruby.L1Cache_Controller.S_IL0.L0_Invalidate_Own::total       350211                      
system.ruby.L1Cache_Controller.S_IL0.L0_Invalidate_Else |        4703     18.76%     18.76% |        8803     35.12%     53.88% |        2589     10.33%     64.21% |        8971     35.79%    100.00%
system.ruby.L1Cache_Controller.S_IL0.L0_Invalidate_Else::total        25066                      
system.ruby.L1Cache_Controller.S_IL0.L0_Ack |       67339     17.94%     17.94% |       64520     17.19%     35.14% |      176464     47.02%     82.16% |       66954     17.84%    100.00%
system.ruby.L1Cache_Controller.S_IL0.L0_Ack::total       375277                      
system.ruby.L1Cache_Controller.E_IL0.WriteBack |           0      0.00%      0.00% |           0      0.00%      0.00% |           1    100.00%    100.00% |           0      0.00%    100.00%
system.ruby.L1Cache_Controller.E_IL0.WriteBack::total            1                      
system.ruby.L1Cache_Controller.E_IL0.L0_DataAck |         145     17.00%     17.00% |         162     18.99%     35.99% |         341     39.98%     75.97% |         205     24.03%    100.00%
system.ruby.L1Cache_Controller.E_IL0.L0_DataAck::total          853                      
system.ruby.L1Cache_Controller.E_IL0.L0_Invalidate_Own |         715      0.05%      0.05% |         397      0.03%      0.08% |     1320132     99.88%     99.97% |         450      0.03%    100.00%
system.ruby.L1Cache_Controller.E_IL0.L0_Invalidate_Own::total      1321694                      
system.ruby.L1Cache_Controller.E_IL0.L0_Invalidate_Else |         282     17.44%     17.44% |         658     40.69%     58.13% |         112      6.93%     65.06% |         565     34.94%    100.00%
system.ruby.L1Cache_Controller.E_IL0.L0_Invalidate_Else::total         1617                      
system.ruby.L1Cache_Controller.E_IL0.L0_Ack |         852      0.06%      0.06% |         893      0.07%      0.13% |     1319902     99.81%     99.94% |         810      0.06%    100.00%
system.ruby.L1Cache_Controller.E_IL0.L0_Ack::total      1322457                      
system.ruby.L1Cache_Controller.M_IL0.WriteBack |           0      0.00%      0.00% |           0      0.00%      0.00% |           1     50.00%     50.00% |           1     50.00%    100.00%
system.ruby.L1Cache_Controller.M_IL0.WriteBack::total            2                      
system.ruby.L1Cache_Controller.M_IL0.L0_DataAck |        5984     18.06%     18.06% |        4348     13.13%     31.19% |       19075     57.58%     88.77% |        3719     11.23%    100.00%
system.ruby.L1Cache_Controller.M_IL0.L0_DataAck::total        33126                      
system.ruby.L1Cache_Controller.M_IL0.L0_Invalidate_Own |        3928      0.36%      0.36% |        2879      0.26%      0.63% |     1077659     99.15%     99.77% |        2481      0.23%    100.00%
system.ruby.L1Cache_Controller.M_IL0.L0_Invalidate_Own::total      1086947                      
system.ruby.L1Cache_Controller.M_IL0.L0_Invalidate_Else |        4892     41.77%     41.77% |        3117     26.61%     68.38% |         891      7.61%     75.98% |        2813     24.02%    100.00%
system.ruby.L1Cache_Controller.M_IL0.L0_Invalidate_Else::total        11713                      
system.ruby.L1Cache_Controller.M_IL0.L0_Ack |        2836      0.27%      0.27% |        1648      0.15%      0.42% |     1059474     99.43%     99.85% |        1574      0.15%    100.00%
system.ruby.L1Cache_Controller.M_IL0.L0_Ack::total      1065532                      
system.ruby.L1Cache_Controller.MM_IL0.Fwd_GETX |           0      0.00%      0.00% |           0      0.00%      0.00% |           1    100.00%    100.00% |           0      0.00%    100.00%
system.ruby.L1Cache_Controller.MM_IL0.Fwd_GETX::total            1                      
system.ruby.L1Cache_Controller.MM_IL0.Fwd_GETS |           0      0.00%      0.00% |           0      0.00%      0.00% |           1     50.00%     50.00% |           1     50.00%    100.00%
system.ruby.L1Cache_Controller.MM_IL0.Fwd_GETS::total            2                      
system.ruby.L1Cache_Controller.MM_IL0.L0_Ack |           0      0.00%      0.00% |           0      0.00%      0.00% |           2     66.67%     66.67% |           1     33.33%    100.00%
system.ruby.L1Cache_Controller.MM_IL0.L0_Ack::total            3                      
system.ruby.L2Cache_Controller.L1_GETS        9958998      0.00%      0.00%
system.ruby.L2Cache_Controller.L1_GETX         705873      0.00%      0.00%
system.ruby.L2Cache_Controller.L1_UPGRADE        16222      0.00%      0.00%
system.ruby.L2Cache_Controller.L1_PUTX       10255929      0.00%      0.00%
system.ruby.L2Cache_Controller.L2_Replacement       493254      0.00%      0.00%
system.ruby.L2Cache_Controller.L2_Replacement_clean       180121      0.00%      0.00%
system.ruby.L2Cache_Controller.Mem_Data        723479      0.00%      0.00%
system.ruby.L2Cache_Controller.Mem_Ack         673417      0.00%      0.00%
system.ruby.L2Cache_Controller.WB_Data          18832      0.00%      0.00%
system.ruby.L2Cache_Controller.WB_Data_clean        18953      0.00%      0.00%
system.ruby.L2Cache_Controller.Ack               9629      0.00%      0.00%
system.ruby.L2Cache_Controller.Ack_all           4826      0.00%      0.00%
system.ruby.L2Cache_Controller.Unblock          28774      0.00%      0.00%
system.ruby.L2Cache_Controller.Exclusive_Unblock     10298998      0.00%      0.00%
system.ruby.L2Cache_Controller.MEM_Inv             84      0.00%      0.00%
system.ruby.L2Cache_Controller.NP.L1_GETS       429877      0.00%      0.00%
system.ruby.L2Cache_Controller.NP.L1_GETX       293602      0.00%      0.00%
system.ruby.L2Cache_Controller.SS.L1_GETS       353035      0.00%      0.00%
system.ruby.L2Cache_Controller.SS.L1_GETX         6378      0.00%      0.00%
system.ruby.L2Cache_Controller.SS.L1_UPGRADE        16218      0.00%      0.00%
system.ruby.L2Cache_Controller.SS.L1_PUTX            1      0.00%      0.00%
system.ruby.L2Cache_Controller.SS.L2_Replacement          255      0.00%      0.00%
system.ruby.L2Cache_Controller.SS.L2_Replacement_clean         4211      0.00%      0.00%
system.ruby.L2Cache_Controller.M.L1_GETS      9147045      0.00%      0.00%
system.ruby.L2Cache_Controller.M.L1_GETX       401029      0.00%      0.00%
system.ruby.L2Cache_Controller.M.L2_Replacement       492099      0.00%      0.00%
system.ruby.L2Cache_Controller.M.L2_Replacement_clean       167443      0.00%      0.00%
system.ruby.L2Cache_Controller.M.MEM_Inv           38      0.00%      0.00%
system.ruby.L2Cache_Controller.MT.L1_GETS        28774      0.00%      0.00%
system.ruby.L2Cache_Controller.MT.L1_GETX         4860      0.00%      0.00%
system.ruby.L2Cache_Controller.MT.L1_PUTX     10255927      0.00%      0.00%
system.ruby.L2Cache_Controller.MT.L2_Replacement          900      0.00%      0.00%
system.ruby.L2Cache_Controller.MT.L2_Replacement_clean         8467      0.00%      0.00%
system.ruby.L2Cache_Controller.MT.MEM_Inv            4      0.00%      0.00%
system.ruby.L2Cache_Controller.M_I.Mem_Ack       673417      0.00%      0.00%
system.ruby.L2Cache_Controller.M_I.MEM_Inv           38      0.00%      0.00%
system.ruby.L2Cache_Controller.MT_I.WB_Data          790      0.00%      0.00%
system.ruby.L2Cache_Controller.MT_I.WB_Data_clean          106      0.00%      0.00%
system.ruby.L2Cache_Controller.MT_I.Ack_all            8      0.00%      0.00%
system.ruby.L2Cache_Controller.MT_I.MEM_Inv            4      0.00%      0.00%
system.ruby.L2Cache_Controller.MCT_I.WB_Data         4740      0.00%      0.00%
system.ruby.L2Cache_Controller.MCT_I.WB_Data_clean         3375      0.00%      0.00%
system.ruby.L2Cache_Controller.MCT_I.Ack_all          352      0.00%      0.00%
system.ruby.L2Cache_Controller.I_I.Ack           9268      0.00%      0.00%
system.ruby.L2Cache_Controller.I_I.Ack_all         4211      0.00%      0.00%
system.ruby.L2Cache_Controller.S_I.Ack            361      0.00%      0.00%
system.ruby.L2Cache_Controller.S_I.Ack_all          255      0.00%      0.00%
system.ruby.L2Cache_Controller.ISS.L1_GETS           11      0.00%      0.00%
system.ruby.L2Cache_Controller.ISS.Mem_Data       429866      0.00%      0.00%
system.ruby.L2Cache_Controller.IS.Mem_Data           11      0.00%      0.00%
system.ruby.L2Cache_Controller.IM.Mem_Data       293602      0.00%      0.00%
system.ruby.L2Cache_Controller.SS_MB.L1_GETS           46      0.00%      0.00%
system.ruby.L2Cache_Controller.SS_MB.L1_GETX            1      0.00%      0.00%
system.ruby.L2Cache_Controller.SS_MB.L1_UPGRADE            4      0.00%      0.00%
system.ruby.L2Cache_Controller.SS_MB.Exclusive_Unblock        22596      0.00%      0.00%
system.ruby.L2Cache_Controller.MT_MB.L1_GETS          209      0.00%      0.00%
system.ruby.L2Cache_Controller.MT_MB.L1_GETX            3      0.00%      0.00%
system.ruby.L2Cache_Controller.MT_MB.Exclusive_Unblock     10276402      0.00%      0.00%
system.ruby.L2Cache_Controller.MT_IIB.L1_GETS            1      0.00%      0.00%
system.ruby.L2Cache_Controller.MT_IIB.L1_PUTX            1      0.00%      0.00%
system.ruby.L2Cache_Controller.MT_IIB.WB_Data        13292      0.00%      0.00%
system.ruby.L2Cache_Controller.MT_IIB.WB_Data_clean        15461      0.00%      0.00%
system.ruby.L2Cache_Controller.MT_IIB.Unblock           21      0.00%      0.00%
system.ruby.L2Cache_Controller.MT_IB.WB_Data           10      0.00%      0.00%
system.ruby.L2Cache_Controller.MT_IB.WB_Data_clean           11      0.00%      0.00%
system.ruby.L2Cache_Controller.MT_SB.Unblock        28753      0.00%      0.00%

---------- End Simulation Statistics   ----------
