Redirecting stdout to /root/anthony/lelec2990-sim2/splash2x.fmm/X86_MESI_Three_Level/l2_size/4MB/stdout.txt
Redirecting stderr to /root/anthony/lelec2990-sim2/splash2x.fmm/X86_MESI_Three_Level/l2_size/4MB/stderr.txt
gem5 Simulator System.  http://gem5.org
gem5 is copyrighted software; use the --copyright option for details.

gem5 compiled Jun  1 2016 12:08:43
gem5 started Jun  3 2016 03:33:48
gem5 executing on colachi.info.ucl.ac.be, pid 1089878
command line: /root/anthony/gem5/build/X86_MESI_Three_Level/gem5.opt --outdir=/root/anthony/lelec2990-sim2/splash2x.fmm/X86_MESI_Three_Level/l2_size/4MB -e --stderr-file=/root/anthony/lelec2990-sim2/splash2x.fmm/X86_MESI_Three_Level/l2_size/4MB/stderr.txt -r --stdout-file=/root/anthony/lelec2990-sim2/splash2x.fmm/X86_MESI_Three_Level/l2_size/4MB/stdout.txt /root/anthony/gem5/configs/example/fs.py --mem-size 1GB --script /root/anthony/lelec2990-sim2/my_sim_script --num-cpus 4 --ruby -r 1 --restore-with-cpu timing --l2_size 4MB

Global frequency set at 1000000000000 ticks per second
info: kernel located at: /root/anthony/debian/binaries/vmlinux
      0: rtc: Real-time clock set to Sun Jan  1 00:00:00 2012
**** REAL SIMULATION ****
info: Entering event queue @ 52193922835500.  Starting simulation...
Exiting @ tick 56291964724001 because m5_exit instruction encountered
