
---------- Begin Simulation Statistics ----------
sim_seconds                                  0.461620                       # Number of seconds simulated
sim_ticks                                461619626500                       # Number of ticks simulated
final_tick                               52368805239501                       # Number of ticks from beginning of simulation (restored from checkpoints and never reset)
sim_freq                                 1000000000000                       # Frequency of simulated ticks
host_inst_rate                                 147571                       # Simulator instruction rate (inst/s)
host_op_rate                                   266325                       # Simulator op (including micro ops) rate (op/s)
host_tick_rate                              253406607                       # Simulator tick rate (ticks/s)
host_mem_usage                                1829952                       # Number of bytes of host memory used
host_seconds                                  1821.66                       # Real time elapsed on the host
sim_insts                                   268822822                       # Number of instructions simulated
sim_ops                                     485153134                       # Number of ops (including micro ops) simulated
system.voltage_domain.voltage                       1                       # Voltage in Volts
system.clk_domain.clock                          1000                       # Clock period in ticks
system.mem_ctrls.bytes_read::ruby.dir_cntrl0       468096                       # Number of bytes read from this memory
system.mem_ctrls.bytes_read::total             468096                       # Number of bytes read from this memory
system.mem_ctrls.bytes_written::ruby.dir_cntrl0       147264                       # Number of bytes written to this memory
system.mem_ctrls.bytes_written::total          147264                       # Number of bytes written to this memory
system.mem_ctrls.num_reads::ruby.dir_cntrl0         7314                       # Number of read requests responded to by this memory
system.mem_ctrls.num_reads::total                7314                       # Number of read requests responded to by this memory
system.mem_ctrls.num_writes::ruby.dir_cntrl0         2301                       # Number of write requests responded to by this memory
system.mem_ctrls.num_writes::total               2301                       # Number of write requests responded to by this memory
system.mem_ctrls.bw_read::ruby.dir_cntrl0      1014030                       # Total read bandwidth from this memory (bytes/s)
system.mem_ctrls.bw_read::total               1014030                       # Total read bandwidth from this memory (bytes/s)
system.mem_ctrls.bw_write::ruby.dir_cntrl0       319016                       # Write bandwidth from this memory (bytes/s)
system.mem_ctrls.bw_write::total               319016                       # Write bandwidth from this memory (bytes/s)
system.mem_ctrls.bw_total::ruby.dir_cntrl0      1333046                       # Total bandwidth to/from this memory (bytes/s)
system.mem_ctrls.bw_total::total              1333046                       # Total bandwidth to/from this memory (bytes/s)
system.mem_ctrls.readReqs                        7314                       # Number of read requests accepted
system.mem_ctrls.writeReqs                       2301                       # Number of write requests accepted
system.mem_ctrls.readBursts                      7314                       # Number of DRAM read bursts, including those serviced by the write queue
system.mem_ctrls.writeBursts                     2301                       # Number of DRAM write bursts, including those merged in the write queue
system.mem_ctrls.bytesReadDRAM                 465600                       # Total number of bytes read from DRAM
system.mem_ctrls.bytesReadWrQ                    2496                       # Total number of bytes read from write queue
system.mem_ctrls.bytesWritten                  145728                       # Total number of bytes written to DRAM
system.mem_ctrls.bytesReadSys                  468096                       # Total read bytes from the system interface side
system.mem_ctrls.bytesWrittenSys               147264                       # Total written bytes from the system interface side
system.mem_ctrls.servicedByWrQ                     39                       # Number of DRAM read bursts serviced by the write queue
system.mem_ctrls.mergedWrBursts                     0                       # Number of DRAM write bursts merged with an existing one
system.mem_ctrls.neitherReadNorWriteReqs            0                       # Number of requests that are neither read nor write
system.mem_ctrls.perBankRdBursts::0               288                       # Per bank write bursts
system.mem_ctrls.perBankRdBursts::1               303                       # Per bank write bursts
system.mem_ctrls.perBankRdBursts::2               428                       # Per bank write bursts
system.mem_ctrls.perBankRdBursts::3               360                       # Per bank write bursts
system.mem_ctrls.perBankRdBursts::4               501                       # Per bank write bursts
system.mem_ctrls.perBankRdBursts::5               527                       # Per bank write bursts
system.mem_ctrls.perBankRdBursts::6               619                       # Per bank write bursts
system.mem_ctrls.perBankRdBursts::7               556                       # Per bank write bursts
system.mem_ctrls.perBankRdBursts::8               295                       # Per bank write bursts
system.mem_ctrls.perBankRdBursts::9               380                       # Per bank write bursts
system.mem_ctrls.perBankRdBursts::10              587                       # Per bank write bursts
system.mem_ctrls.perBankRdBursts::11              608                       # Per bank write bursts
system.mem_ctrls.perBankRdBursts::12              376                       # Per bank write bursts
system.mem_ctrls.perBankRdBursts::13              446                       # Per bank write bursts
system.mem_ctrls.perBankRdBursts::14              564                       # Per bank write bursts
system.mem_ctrls.perBankRdBursts::15              437                       # Per bank write bursts
system.mem_ctrls.perBankWrBursts::0                82                       # Per bank write bursts
system.mem_ctrls.perBankWrBursts::1               193                       # Per bank write bursts
system.mem_ctrls.perBankWrBursts::2               145                       # Per bank write bursts
system.mem_ctrls.perBankWrBursts::3               202                       # Per bank write bursts
system.mem_ctrls.perBankWrBursts::4               203                       # Per bank write bursts
system.mem_ctrls.perBankWrBursts::5               135                       # Per bank write bursts
system.mem_ctrls.perBankWrBursts::6               128                       # Per bank write bursts
system.mem_ctrls.perBankWrBursts::7               195                       # Per bank write bursts
system.mem_ctrls.perBankWrBursts::8               194                       # Per bank write bursts
system.mem_ctrls.perBankWrBursts::9               192                       # Per bank write bursts
system.mem_ctrls.perBankWrBursts::10              192                       # Per bank write bursts
system.mem_ctrls.perBankWrBursts::11              133                       # Per bank write bursts
system.mem_ctrls.perBankWrBursts::12                0                       # Per bank write bursts
system.mem_ctrls.perBankWrBursts::13               14                       # Per bank write bursts
system.mem_ctrls.perBankWrBursts::14              205                       # Per bank write bursts
system.mem_ctrls.perBankWrBursts::15               64                       # Per bank write bursts
system.mem_ctrls.numRdRetry                         0                       # Number of times read queue was full causing retry
system.mem_ctrls.numWrRetry                         0                       # Number of times write queue was full causing retry
system.mem_ctrls.totGap                  461619555500                       # Total gap between requests
system.mem_ctrls.readPktSize::0                     0                       # Read request sizes (log2)
system.mem_ctrls.readPktSize::1                     0                       # Read request sizes (log2)
system.mem_ctrls.readPktSize::2                     0                       # Read request sizes (log2)
system.mem_ctrls.readPktSize::3                     0                       # Read request sizes (log2)
system.mem_ctrls.readPktSize::4                     0                       # Read request sizes (log2)
system.mem_ctrls.readPktSize::5                     0                       # Read request sizes (log2)
system.mem_ctrls.readPktSize::6                  7314                       # Read request sizes (log2)
system.mem_ctrls.writePktSize::0                    0                       # Write request sizes (log2)
system.mem_ctrls.writePktSize::1                    0                       # Write request sizes (log2)
system.mem_ctrls.writePktSize::2                    0                       # Write request sizes (log2)
system.mem_ctrls.writePktSize::3                    0                       # Write request sizes (log2)
system.mem_ctrls.writePktSize::4                    0                       # Write request sizes (log2)
system.mem_ctrls.writePktSize::5                    0                       # Write request sizes (log2)
system.mem_ctrls.writePktSize::6                 2301                       # Write request sizes (log2)
system.mem_ctrls.rdQLenPdf::0                    7071                       # What read queue length does an incoming req see
system.mem_ctrls.rdQLenPdf::1                     204                       # What read queue length does an incoming req see
system.mem_ctrls.rdQLenPdf::2                       0                       # What read queue length does an incoming req see
system.mem_ctrls.rdQLenPdf::3                       0                       # What read queue length does an incoming req see
system.mem_ctrls.rdQLenPdf::4                       0                       # What read queue length does an incoming req see
system.mem_ctrls.rdQLenPdf::5                       0                       # What read queue length does an incoming req see
system.mem_ctrls.rdQLenPdf::6                       0                       # What read queue length does an incoming req see
system.mem_ctrls.rdQLenPdf::7                       0                       # What read queue length does an incoming req see
system.mem_ctrls.rdQLenPdf::8                       0                       # What read queue length does an incoming req see
system.mem_ctrls.rdQLenPdf::9                       0                       # What read queue length does an incoming req see
system.mem_ctrls.rdQLenPdf::10                      0                       # What read queue length does an incoming req see
system.mem_ctrls.rdQLenPdf::11                      0                       # What read queue length does an incoming req see
system.mem_ctrls.rdQLenPdf::12                      0                       # What read queue length does an incoming req see
system.mem_ctrls.rdQLenPdf::13                      0                       # What read queue length does an incoming req see
system.mem_ctrls.rdQLenPdf::14                      0                       # What read queue length does an incoming req see
system.mem_ctrls.rdQLenPdf::15                      0                       # What read queue length does an incoming req see
system.mem_ctrls.rdQLenPdf::16                      0                       # What read queue length does an incoming req see
system.mem_ctrls.rdQLenPdf::17                      0                       # What read queue length does an incoming req see
system.mem_ctrls.rdQLenPdf::18                      0                       # What read queue length does an incoming req see
system.mem_ctrls.rdQLenPdf::19                      0                       # What read queue length does an incoming req see
system.mem_ctrls.rdQLenPdf::20                      0                       # What read queue length does an incoming req see
system.mem_ctrls.rdQLenPdf::21                      0                       # What read queue length does an incoming req see
system.mem_ctrls.rdQLenPdf::22                      0                       # What read queue length does an incoming req see
system.mem_ctrls.rdQLenPdf::23                      0                       # What read queue length does an incoming req see
system.mem_ctrls.rdQLenPdf::24                      0                       # What read queue length does an incoming req see
system.mem_ctrls.rdQLenPdf::25                      0                       # What read queue length does an incoming req see
system.mem_ctrls.rdQLenPdf::26                      0                       # What read queue length does an incoming req see
system.mem_ctrls.rdQLenPdf::27                      0                       # What read queue length does an incoming req see
system.mem_ctrls.rdQLenPdf::28                      0                       # What read queue length does an incoming req see
system.mem_ctrls.rdQLenPdf::29                      0                       # What read queue length does an incoming req see
system.mem_ctrls.rdQLenPdf::30                      0                       # What read queue length does an incoming req see
system.mem_ctrls.rdQLenPdf::31                      0                       # What read queue length does an incoming req see
system.mem_ctrls.wrQLenPdf::0                       0                       # What write queue length does an incoming req see
system.mem_ctrls.wrQLenPdf::1                       0                       # What write queue length does an incoming req see
system.mem_ctrls.wrQLenPdf::2                       0                       # What write queue length does an incoming req see
system.mem_ctrls.wrQLenPdf::3                       0                       # What write queue length does an incoming req see
system.mem_ctrls.wrQLenPdf::4                       0                       # What write queue length does an incoming req see
system.mem_ctrls.wrQLenPdf::5                       1                       # What write queue length does an incoming req see
system.mem_ctrls.wrQLenPdf::6                       1                       # What write queue length does an incoming req see
system.mem_ctrls.wrQLenPdf::7                       1                       # What write queue length does an incoming req see
system.mem_ctrls.wrQLenPdf::8                       1                       # What write queue length does an incoming req see
system.mem_ctrls.wrQLenPdf::9                       1                       # What write queue length does an incoming req see
system.mem_ctrls.wrQLenPdf::10                      1                       # What write queue length does an incoming req see
system.mem_ctrls.wrQLenPdf::11                      1                       # What write queue length does an incoming req see
system.mem_ctrls.wrQLenPdf::12                      1                       # What write queue length does an incoming req see
system.mem_ctrls.wrQLenPdf::13                      1                       # What write queue length does an incoming req see
system.mem_ctrls.wrQLenPdf::14                      1                       # What write queue length does an incoming req see
system.mem_ctrls.wrQLenPdf::15                     77                       # What write queue length does an incoming req see
system.mem_ctrls.wrQLenPdf::16                    108                       # What write queue length does an incoming req see
system.mem_ctrls.wrQLenPdf::17                    120                       # What write queue length does an incoming req see
system.mem_ctrls.wrQLenPdf::18                    148                       # What write queue length does an incoming req see
system.mem_ctrls.wrQLenPdf::19                    119                       # What write queue length does an incoming req see
system.mem_ctrls.wrQLenPdf::20                    159                       # What write queue length does an incoming req see
system.mem_ctrls.wrQLenPdf::21                    127                       # What write queue length does an incoming req see
system.mem_ctrls.wrQLenPdf::22                    168                       # What write queue length does an incoming req see
system.mem_ctrls.wrQLenPdf::23                    130                       # What write queue length does an incoming req see
system.mem_ctrls.wrQLenPdf::24                    169                       # What write queue length does an incoming req see
system.mem_ctrls.wrQLenPdf::25                    132                       # What write queue length does an incoming req see
system.mem_ctrls.wrQLenPdf::26                    133                       # What write queue length does an incoming req see
system.mem_ctrls.wrQLenPdf::27                    121                       # What write queue length does an incoming req see
system.mem_ctrls.wrQLenPdf::28                    124                       # What write queue length does an incoming req see
system.mem_ctrls.wrQLenPdf::29                     97                       # What write queue length does an incoming req see
system.mem_ctrls.wrQLenPdf::30                    111                       # What write queue length does an incoming req see
system.mem_ctrls.wrQLenPdf::31                     98                       # What write queue length does an incoming req see
system.mem_ctrls.wrQLenPdf::32                     96                       # What write queue length does an incoming req see
system.mem_ctrls.wrQLenPdf::33                      8                       # What write queue length does an incoming req see
system.mem_ctrls.wrQLenPdf::34                      5                       # What write queue length does an incoming req see
system.mem_ctrls.wrQLenPdf::35                      7                       # What write queue length does an incoming req see
system.mem_ctrls.wrQLenPdf::36                      6                       # What write queue length does an incoming req see
system.mem_ctrls.wrQLenPdf::37                      5                       # What write queue length does an incoming req see
system.mem_ctrls.wrQLenPdf::38                      6                       # What write queue length does an incoming req see
system.mem_ctrls.wrQLenPdf::39                      5                       # What write queue length does an incoming req see
system.mem_ctrls.wrQLenPdf::40                      4                       # What write queue length does an incoming req see
system.mem_ctrls.wrQLenPdf::41                      3                       # What write queue length does an incoming req see
system.mem_ctrls.wrQLenPdf::42                      2                       # What write queue length does an incoming req see
system.mem_ctrls.wrQLenPdf::43                      2                       # What write queue length does an incoming req see
system.mem_ctrls.wrQLenPdf::44                      1                       # What write queue length does an incoming req see
system.mem_ctrls.wrQLenPdf::45                      0                       # What write queue length does an incoming req see
system.mem_ctrls.wrQLenPdf::46                      0                       # What write queue length does an incoming req see
system.mem_ctrls.wrQLenPdf::47                      0                       # What write queue length does an incoming req see
system.mem_ctrls.wrQLenPdf::48                      0                       # What write queue length does an incoming req see
system.mem_ctrls.wrQLenPdf::49                      0                       # What write queue length does an incoming req see
system.mem_ctrls.wrQLenPdf::50                      0                       # What write queue length does an incoming req see
system.mem_ctrls.wrQLenPdf::51                      0                       # What write queue length does an incoming req see
system.mem_ctrls.wrQLenPdf::52                      0                       # What write queue length does an incoming req see
system.mem_ctrls.wrQLenPdf::53                      0                       # What write queue length does an incoming req see
system.mem_ctrls.wrQLenPdf::54                      0                       # What write queue length does an incoming req see
system.mem_ctrls.wrQLenPdf::55                      0                       # What write queue length does an incoming req see
system.mem_ctrls.wrQLenPdf::56                      0                       # What write queue length does an incoming req see
system.mem_ctrls.wrQLenPdf::57                      0                       # What write queue length does an incoming req see
system.mem_ctrls.wrQLenPdf::58                      0                       # What write queue length does an incoming req see
system.mem_ctrls.wrQLenPdf::59                      0                       # What write queue length does an incoming req see
system.mem_ctrls.wrQLenPdf::60                      0                       # What write queue length does an incoming req see
system.mem_ctrls.wrQLenPdf::61                      0                       # What write queue length does an incoming req see
system.mem_ctrls.wrQLenPdf::62                      0                       # What write queue length does an incoming req see
system.mem_ctrls.wrQLenPdf::63                      0                       # What write queue length does an incoming req see
system.mem_ctrls.bytesPerActivate::samples         3162                       # Bytes accessed per row activation
system.mem_ctrls.bytesPerActivate::mean    193.376344                       # Bytes accessed per row activation
system.mem_ctrls.bytesPerActivate::gmean   120.444634                       # Bytes accessed per row activation
system.mem_ctrls.bytesPerActivate::stdev   258.259030                       # Bytes accessed per row activation
system.mem_ctrls.bytesPerActivate::0-127         1575     49.81%     49.81% # Bytes accessed per row activation
system.mem_ctrls.bytesPerActivate::128-255         1042     32.95%     82.76% # Bytes accessed per row activation
system.mem_ctrls.bytesPerActivate::256-383          152      4.81%     87.57% # Bytes accessed per row activation
system.mem_ctrls.bytesPerActivate::384-511           62      1.96%     89.53% # Bytes accessed per row activation
system.mem_ctrls.bytesPerActivate::512-639           48      1.52%     91.05% # Bytes accessed per row activation
system.mem_ctrls.bytesPerActivate::640-767           38      1.20%     92.25% # Bytes accessed per row activation
system.mem_ctrls.bytesPerActivate::768-895           15      0.47%     92.73% # Bytes accessed per row activation
system.mem_ctrls.bytesPerActivate::896-1023           19      0.60%     93.33% # Bytes accessed per row activation
system.mem_ctrls.bytesPerActivate::1024-1151          211      6.67%    100.00% # Bytes accessed per row activation
system.mem_ctrls.bytesPerActivate::total         3162                       # Bytes accessed per row activation
system.mem_ctrls.rdPerTurnAround::samples           83                       # Reads before turning the bus around for writes
system.mem_ctrls.rdPerTurnAround::mean     284.710843                       # Reads before turning the bus around for writes
system.mem_ctrls.rdPerTurnAround::stdev   1948.588899                       # Reads before turning the bus around for writes
system.mem_ctrls.rdPerTurnAround::0-1023           81     97.59%     97.59% # Reads before turning the bus around for writes
system.mem_ctrls.rdPerTurnAround::1024-2047            1      1.20%     98.80% # Reads before turning the bus around for writes
system.mem_ctrls.rdPerTurnAround::17408-18431            1      1.20%    100.00% # Reads before turning the bus around for writes
system.mem_ctrls.rdPerTurnAround::total            83                       # Reads before turning the bus around for writes
system.mem_ctrls.wrPerTurnAround::samples           83                       # Writes before turning the bus around for reads
system.mem_ctrls.wrPerTurnAround::mean      27.433735                       # Writes before turning the bus around for reads
system.mem_ctrls.wrPerTurnAround::gmean     26.263585                       # Writes before turning the bus around for reads
system.mem_ctrls.wrPerTurnAround::stdev      8.453882                       # Writes before turning the bus around for reads
system.mem_ctrls.wrPerTurnAround::16                7      8.43%      8.43% # Writes before turning the bus around for reads
system.mem_ctrls.wrPerTurnAround::18                7      8.43%     16.87% # Writes before turning the bus around for reads
system.mem_ctrls.wrPerTurnAround::20                2      2.41%     19.28% # Writes before turning the bus around for reads
system.mem_ctrls.wrPerTurnAround::22                1      1.20%     20.48% # Writes before turning the bus around for reads
system.mem_ctrls.wrPerTurnAround::23               19     22.89%     43.37% # Writes before turning the bus around for reads
system.mem_ctrls.wrPerTurnAround::24                7      8.43%     51.81% # Writes before turning the bus around for reads
system.mem_ctrls.wrPerTurnAround::25                3      3.61%     55.42% # Writes before turning the bus around for reads
system.mem_ctrls.wrPerTurnAround::26                2      2.41%     57.83% # Writes before turning the bus around for reads
system.mem_ctrls.wrPerTurnAround::28                1      1.20%     59.04% # Writes before turning the bus around for reads
system.mem_ctrls.wrPerTurnAround::29                3      3.61%     62.65% # Writes before turning the bus around for reads
system.mem_ctrls.wrPerTurnAround::30                4      4.82%     67.47% # Writes before turning the bus around for reads
system.mem_ctrls.wrPerTurnAround::34                3      3.61%     71.08% # Writes before turning the bus around for reads
system.mem_ctrls.wrPerTurnAround::35               19     22.89%     93.98% # Writes before turning the bus around for reads
system.mem_ctrls.wrPerTurnAround::41                1      1.20%     95.18% # Writes before turning the bus around for reads
system.mem_ctrls.wrPerTurnAround::42                1      1.20%     96.39% # Writes before turning the bus around for reads
system.mem_ctrls.wrPerTurnAround::48                1      1.20%     97.59% # Writes before turning the bus around for reads
system.mem_ctrls.wrPerTurnAround::55                1      1.20%     98.80% # Writes before turning the bus around for reads
system.mem_ctrls.wrPerTurnAround::57                1      1.20%    100.00% # Writes before turning the bus around for reads
system.mem_ctrls.wrPerTurnAround::total            83                       # Writes before turning the bus around for reads
system.mem_ctrls.totQLat                     69302250                       # Total ticks spent queuing
system.mem_ctrls.totMemAccLat               205708500                       # Total ticks spent from burst creation until serviced by the DRAM
system.mem_ctrls.totBusLat                   36375000                       # Total ticks spent in databus transfers
system.mem_ctrls.avgQLat                      9526.08                       # Average queueing delay per DRAM burst
system.mem_ctrls.avgBusLat                    5000.00                       # Average bus latency per DRAM burst
system.mem_ctrls.avgMemAccLat                28276.08                       # Average memory access latency per DRAM burst
system.mem_ctrls.avgRdBW                         1.01                       # Average DRAM read bandwidth in MiByte/s
system.mem_ctrls.avgWrBW                         0.32                       # Average achieved write bandwidth in MiByte/s
system.mem_ctrls.avgRdBWSys                      1.01                       # Average system read bandwidth in MiByte/s
system.mem_ctrls.avgWrBWSys                      0.32                       # Average system write bandwidth in MiByte/s
system.mem_ctrls.peakBW                      12800.00                       # Theoretical peak bandwidth in MiByte/s
system.mem_ctrls.busUtil                         0.01                       # Data bus utilization in percentage
system.mem_ctrls.busUtilRead                     0.01                       # Data bus utilization in percentage for reads
system.mem_ctrls.busUtilWrite                    0.00                       # Data bus utilization in percentage for writes
system.mem_ctrls.avgRdQLen                       1.00                       # Average read queue length when enqueuing
system.mem_ctrls.avgWrQLen                      27.81                       # Average write queue length when enqueuing
system.mem_ctrls.readRowHits                     4331                       # Number of row buffer hits during reads
system.mem_ctrls.writeRowHits                    2059                       # Number of row buffer hits during writes
system.mem_ctrls.readRowHitRate                 59.53                       # Row buffer hit rate for reads
system.mem_ctrls.writeRowHitRate                89.48                       # Row buffer hit rate for writes
system.mem_ctrls.avgGap                   48010354.19                       # Average gap between requests
system.mem_ctrls.pageHitRate                    66.73                       # Row buffer hit rate, read and write combined
system.mem_ctrls_0.actEnergy                 29174040                       # Energy for activate commands per rank (pJ)
system.mem_ctrls_0.preEnergy                 15918375                       # Energy for precharge commands per rank (pJ)
system.mem_ctrls_0.readEnergy                96049200                       # Energy for read commands per rank (pJ)
system.mem_ctrls_0.writeEnergy                8313840                       # Energy for write commands per rank (pJ)
system.mem_ctrls_0.refreshEnergy          30372220320                       # Energy for refresh commands per rank (pJ)
system.mem_ctrls_0.actBackEnergy          13000131360                       # Energy for active background per rank (pJ)
system.mem_ctrls_0.preBackEnergy         267602785500                       # Energy for precharge background per rank (pJ)
system.mem_ctrls_0.totalEnergy           311124592635                       # Total energy per rank (pJ)
system.mem_ctrls_0.averagePower            669.069775                       # Core power per rank (mW)
system.mem_ctrls_0.memoryStateTime::IDLE 443915919250                       # Time in different power states
system.mem_ctrls_0.memoryStateTime::REF   15414360000                       # Time in different power states
system.mem_ctrls_0.memoryStateTime::PRE_PDN            0                       # Time in different power states
system.mem_ctrls_0.memoryStateTime::ACT    2289448250                       # Time in different power states
system.mem_ctrls_0.memoryStateTime::ACT_PDN            0                       # Time in different power states
system.mem_ctrls_1.actEnergy                 24169320                       # Energy for activate commands per rank (pJ)
system.mem_ctrls_1.preEnergy                 13187625                       # Energy for precharge commands per rank (pJ)
system.mem_ctrls_1.readEnergy                88436400                       # Energy for read commands per rank (pJ)
system.mem_ctrls_1.writeEnergy                6441120                       # Energy for write commands per rank (pJ)
system.mem_ctrls_1.refreshEnergy          30372220320                       # Energy for refresh commands per rank (pJ)
system.mem_ctrls_1.actBackEnergy          12827986515                       # Energy for active background per rank (pJ)
system.mem_ctrls_1.preBackEnergy         267753789750                       # Energy for precharge background per rank (pJ)
system.mem_ctrls_1.totalEnergy           311086231050                       # Total energy per rank (pJ)
system.mem_ctrls_1.averagePower            668.987279                       # Core power per rank (mW)
system.mem_ctrls_1.memoryStateTime::IDLE 444097219250                       # Time in different power states
system.mem_ctrls_1.memoryStateTime::REF   15414360000                       # Time in different power states
system.mem_ctrls_1.memoryStateTime::PRE_PDN            0                       # Time in different power states
system.mem_ctrls_1.memoryStateTime::ACT    2104038250                       # Time in different power states
system.mem_ctrls_1.memoryStateTime::ACT_PDN            0                       # Time in different power states
system.cpu_voltage_domain.voltage                   1                       # Voltage in Volts
system.cpu_clk_domain.clock                       500                       # Clock period in ticks
system.cpu0.apic_clk_domain.clock                8000                       # Clock period in ticks
system.cpu0.numCycles                       927442828                       # number of cpu cycles simulated
system.cpu0.numWorkItemsStarted                     0                       # number of work items this cpu started
system.cpu0.numWorkItemsCompleted                   0                       # number of work items this cpu completed
system.cpu0.kern.inst.arm                           0                       # number of arm instructions executed
system.cpu0.kern.inst.quiesce                       0                       # number of quiesce instructions executed
system.cpu0.committedInsts                     402015                       # Number of instructions committed
system.cpu0.committedOps                       846822                       # Number of ops (including micro ops) committed
system.cpu0.num_int_alu_accesses               831780                       # Number of integer alu accesses
system.cpu0.num_fp_alu_accesses                   387                       # Number of float alu accesses
system.cpu0.num_func_calls                      24913                       # number of times a function call or return occured
system.cpu0.num_conditional_control_insts        55542                       # number of instructions that are conditional controls
system.cpu0.num_int_insts                      831780                       # number of integer instructions
system.cpu0.num_fp_insts                          387                       # number of float instructions
system.cpu0.num_int_register_reads            1682867                       # number of times the integer registers were read
system.cpu0.num_int_register_writes            679135                       # number of times the integer registers were written
system.cpu0.num_fp_register_reads                 622                       # number of times the floating registers were read
system.cpu0.num_fp_register_writes                354                       # number of times the floating registers were written
system.cpu0.num_cc_register_reads              445896                       # number of times the CC registers were read
system.cpu0.num_cc_register_writes             259482                       # number of times the CC registers were written
system.cpu0.num_mem_refs                       202633                       # number of memory refs
system.cpu0.num_load_insts                     123919                       # Number of load instructions
system.cpu0.num_store_insts                     78714                       # Number of store instructions
system.cpu0.num_idle_cycles              925623657.729694                       # Number of idle cycles
system.cpu0.num_busy_cycles              1819170.270306                       # Number of busy cycles
system.cpu0.not_idle_fraction                0.001961                       # Percentage of non-idle cycles
system.cpu0.idle_fraction                    0.998039                       # Percentage of idle cycles
system.cpu0.Branches                            87988                       # Number of branches fetched
system.cpu0.op_class::No_OpClass                 9669      1.14%      1.14% # Class of executed instruction
system.cpu0.op_class::IntAlu                   630147     74.41%     75.55% # Class of executed instruction
system.cpu0.op_class::IntMult                    1679      0.20%     75.75% # Class of executed instruction
system.cpu0.op_class::IntDiv                     2478      0.29%     76.04% # Class of executed instruction
system.cpu0.op_class::FloatAdd                    239      0.03%     76.07% # Class of executed instruction
system.cpu0.op_class::FloatCmp                      0      0.00%     76.07% # Class of executed instruction
system.cpu0.op_class::FloatCvt                      0      0.00%     76.07% # Class of executed instruction
system.cpu0.op_class::FloatMult                     0      0.00%     76.07% # Class of executed instruction
system.cpu0.op_class::FloatDiv                      0      0.00%     76.07% # Class of executed instruction
system.cpu0.op_class::FloatSqrt                     0      0.00%     76.07% # Class of executed instruction
system.cpu0.op_class::SimdAdd                       0      0.00%     76.07% # Class of executed instruction
system.cpu0.op_class::SimdAddAcc                    0      0.00%     76.07% # Class of executed instruction
system.cpu0.op_class::SimdAlu                       0      0.00%     76.07% # Class of executed instruction
system.cpu0.op_class::SimdCmp                       0      0.00%     76.07% # Class of executed instruction
system.cpu0.op_class::SimdCvt                       0      0.00%     76.07% # Class of executed instruction
system.cpu0.op_class::SimdMisc                      0      0.00%     76.07% # Class of executed instruction
system.cpu0.op_class::SimdMult                      0      0.00%     76.07% # Class of executed instruction
system.cpu0.op_class::SimdMultAcc                   0      0.00%     76.07% # Class of executed instruction
system.cpu0.op_class::SimdShift                     0      0.00%     76.07% # Class of executed instruction
system.cpu0.op_class::SimdShiftAcc                  0      0.00%     76.07% # Class of executed instruction
system.cpu0.op_class::SimdSqrt                      0      0.00%     76.07% # Class of executed instruction
system.cpu0.op_class::SimdFloatAdd                  0      0.00%     76.07% # Class of executed instruction
system.cpu0.op_class::SimdFloatAlu                  0      0.00%     76.07% # Class of executed instruction
system.cpu0.op_class::SimdFloatCmp                  0      0.00%     76.07% # Class of executed instruction
system.cpu0.op_class::SimdFloatCvt                  0      0.00%     76.07% # Class of executed instruction
system.cpu0.op_class::SimdFloatDiv                  0      0.00%     76.07% # Class of executed instruction
system.cpu0.op_class::SimdFloatMisc                 0      0.00%     76.07% # Class of executed instruction
system.cpu0.op_class::SimdFloatMult                 0      0.00%     76.07% # Class of executed instruction
system.cpu0.op_class::SimdFloatMultAcc              0      0.00%     76.07% # Class of executed instruction
system.cpu0.op_class::SimdFloatSqrt                 0      0.00%     76.07% # Class of executed instruction
system.cpu0.op_class::MemRead                  123919     14.63%     90.71% # Class of executed instruction
system.cpu0.op_class::MemWrite                  78714      9.29%    100.00% # Class of executed instruction
system.cpu0.op_class::IprAccess                     0      0.00%    100.00% # Class of executed instruction
system.cpu0.op_class::InstPrefetch                  0      0.00%    100.00% # Class of executed instruction
system.cpu0.op_class::total                    846845                       # Class of executed instruction
system.cpu1.apic_clk_domain.clock                8000                       # Clock period in ticks
system.cpu1.numCycles                       925178689                       # number of cpu cycles simulated
system.cpu1.numWorkItemsStarted                     0                       # number of work items this cpu started
system.cpu1.numWorkItemsCompleted                   0                       # number of work items this cpu completed
system.cpu1.kern.inst.arm                           0                       # number of arm instructions executed
system.cpu1.kern.inst.quiesce                       0                       # number of quiesce instructions executed
system.cpu1.committedInsts                  265725529                       # Number of instructions committed
system.cpu1.committedOps                    479148054                       # Number of ops (including micro ops) committed
system.cpu1.num_int_alu_accesses            269520482                       # Number of integer alu accesses
system.cpu1.num_fp_alu_accesses             270602519                       # Number of float alu accesses
system.cpu1.num_func_calls                    9863976                       # number of times a function call or return occured
system.cpu1.num_conditional_control_insts     14995574                       # number of instructions that are conditional controls
system.cpu1.num_int_insts                   269520482                       # number of integer instructions
system.cpu1.num_fp_insts                    270602519                       # number of float instructions
system.cpu1.num_int_register_reads          512451658                       # number of times the integer registers were read
system.cpu1.num_int_register_writes         176028493                       # number of times the integer registers were written
system.cpu1.num_fp_register_reads           446698678                       # number of times the floating registers were read
system.cpu1.num_fp_register_writes          249457043                       # number of times the floating registers were written
system.cpu1.num_cc_register_reads           106881060                       # number of times the CC registers were read
system.cpu1.num_cc_register_writes           82954245                       # number of times the CC registers were written
system.cpu1.num_mem_refs                     84017574                       # number of memory refs
system.cpu1.num_load_insts                   62863123                       # Number of load instructions
system.cpu1.num_store_insts                  21154451                       # Number of store instructions
system.cpu1.num_idle_cycles              3481378.954165                       # Number of idle cycles
system.cpu1.num_busy_cycles              921697310.045835                       # Number of busy cycles
system.cpu1.not_idle_fraction                0.996237                       # Percentage of non-idle cycles
system.cpu1.idle_fraction                    0.003763                       # Percentage of idle cycles
system.cpu1.Branches                         27042750                       # Number of branches fetched
system.cpu1.op_class::No_OpClass                10601      0.00%      0.00% # Class of executed instruction
system.cpu1.op_class::IntAlu                244747933     51.08%     51.08% # Class of executed instruction
system.cpu1.op_class::IntMult                    2388      0.00%     51.08% # Class of executed instruction
system.cpu1.op_class::IntDiv                     1733      0.00%     51.08% # Class of executed instruction
system.cpu1.op_class::FloatAdd              150367922     31.38%     82.47% # Class of executed instruction
system.cpu1.op_class::FloatCmp                      0      0.00%     82.47% # Class of executed instruction
system.cpu1.op_class::FloatCvt                      0      0.00%     82.47% # Class of executed instruction
system.cpu1.op_class::FloatMult                     0      0.00%     82.47% # Class of executed instruction
system.cpu1.op_class::FloatDiv                      0      0.00%     82.47% # Class of executed instruction
system.cpu1.op_class::FloatSqrt                     0      0.00%     82.47% # Class of executed instruction
system.cpu1.op_class::SimdAdd                       0      0.00%     82.47% # Class of executed instruction
system.cpu1.op_class::SimdAddAcc                    0      0.00%     82.47% # Class of executed instruction
system.cpu1.op_class::SimdAlu                       0      0.00%     82.47% # Class of executed instruction
system.cpu1.op_class::SimdCmp                       0      0.00%     82.47% # Class of executed instruction
system.cpu1.op_class::SimdCvt                       0      0.00%     82.47% # Class of executed instruction
system.cpu1.op_class::SimdMisc                      0      0.00%     82.47% # Class of executed instruction
system.cpu1.op_class::SimdMult                      0      0.00%     82.47% # Class of executed instruction
system.cpu1.op_class::SimdMultAcc                   0      0.00%     82.47% # Class of executed instruction
system.cpu1.op_class::SimdShift                     0      0.00%     82.47% # Class of executed instruction
system.cpu1.op_class::SimdShiftAcc                  0      0.00%     82.47% # Class of executed instruction
system.cpu1.op_class::SimdSqrt                      0      0.00%     82.47% # Class of executed instruction
system.cpu1.op_class::SimdFloatAdd                  0      0.00%     82.47% # Class of executed instruction
system.cpu1.op_class::SimdFloatAlu                  0      0.00%     82.47% # Class of executed instruction
system.cpu1.op_class::SimdFloatCmp                  0      0.00%     82.47% # Class of executed instruction
system.cpu1.op_class::SimdFloatCvt                  0      0.00%     82.47% # Class of executed instruction
system.cpu1.op_class::SimdFloatDiv                  0      0.00%     82.47% # Class of executed instruction
system.cpu1.op_class::SimdFloatMisc                 0      0.00%     82.47% # Class of executed instruction
system.cpu1.op_class::SimdFloatMult                 0      0.00%     82.47% # Class of executed instruction
system.cpu1.op_class::SimdFloatMultAcc              0      0.00%     82.47% # Class of executed instruction
system.cpu1.op_class::SimdFloatSqrt                 0      0.00%     82.47% # Class of executed instruction
system.cpu1.op_class::MemRead                62863123     13.12%     95.58% # Class of executed instruction
system.cpu1.op_class::MemWrite               21154451      4.42%    100.00% # Class of executed instruction
system.cpu1.op_class::IprAccess                     0      0.00%    100.00% # Class of executed instruction
system.cpu1.op_class::InstPrefetch                  0      0.00%    100.00% # Class of executed instruction
system.cpu1.op_class::total                 479148151                       # Class of executed instruction
system.cpu2.apic_clk_domain.clock                8000                       # Clock period in ticks
system.cpu2.numCycles                       923332792                       # number of cpu cycles simulated
system.cpu2.numWorkItemsStarted                     0                       # number of work items this cpu started
system.cpu2.numWorkItemsCompleted                   0                       # number of work items this cpu completed
system.cpu2.kern.inst.arm                           0                       # number of arm instructions executed
system.cpu2.kern.inst.quiesce                       0                       # number of quiesce instructions executed
system.cpu2.committedInsts                     367786                       # Number of instructions committed
system.cpu2.committedOps                       779091                       # Number of ops (including micro ops) committed
system.cpu2.num_int_alu_accesses               764008                       # Number of integer alu accesses
system.cpu2.num_fp_alu_accesses                    33                       # Number of float alu accesses
system.cpu2.num_func_calls                      21503                       # number of times a function call or return occured
system.cpu2.num_conditional_control_insts        56213                       # number of instructions that are conditional controls
system.cpu2.num_int_insts                      764008                       # number of integer instructions
system.cpu2.num_fp_insts                           33                       # number of float instructions
system.cpu2.num_int_register_reads            1541058                       # number of times the integer registers were read
system.cpu2.num_int_register_writes            628310                       # number of times the integer registers were written
system.cpu2.num_fp_register_reads                  14                       # number of times the floating registers were read
system.cpu2.num_fp_register_writes                 25                       # number of times the floating registers were written
system.cpu2.num_cc_register_reads              435416                       # number of times the CC registers were read
system.cpu2.num_cc_register_writes             234147                       # number of times the CC registers were written
system.cpu2.num_mem_refs                       183620                       # number of memory refs
system.cpu2.num_load_insts                     113659                       # Number of load instructions
system.cpu2.num_store_insts                     69961                       # Number of store instructions
system.cpu2.num_idle_cycles              921586819.124763                       # Number of idle cycles
system.cpu2.num_busy_cycles              1745972.875237                       # Number of busy cycles
system.cpu2.not_idle_fraction                0.001891                       # Percentage of non-idle cycles
system.cpu2.idle_fraction                    0.998109                       # Percentage of idle cycles
system.cpu2.Branches                            84581                       # Number of branches fetched
system.cpu2.op_class::No_OpClass                11645      1.49%      1.49% # Class of executed instruction
system.cpu2.op_class::IntAlu                   578268     74.22%     75.72% # Class of executed instruction
system.cpu2.op_class::IntMult                    1574      0.20%     75.92% # Class of executed instruction
system.cpu2.op_class::IntDiv                     3971      0.51%     76.43% # Class of executed instruction
system.cpu2.op_class::FloatAdd                     17      0.00%     76.43% # Class of executed instruction
system.cpu2.op_class::FloatCmp                      0      0.00%     76.43% # Class of executed instruction
system.cpu2.op_class::FloatCvt                      0      0.00%     76.43% # Class of executed instruction
system.cpu2.op_class::FloatMult                     0      0.00%     76.43% # Class of executed instruction
system.cpu2.op_class::FloatDiv                      0      0.00%     76.43% # Class of executed instruction
system.cpu2.op_class::FloatSqrt                     0      0.00%     76.43% # Class of executed instruction
system.cpu2.op_class::SimdAdd                       0      0.00%     76.43% # Class of executed instruction
system.cpu2.op_class::SimdAddAcc                    0      0.00%     76.43% # Class of executed instruction
system.cpu2.op_class::SimdAlu                       0      0.00%     76.43% # Class of executed instruction
system.cpu2.op_class::SimdCmp                       0      0.00%     76.43% # Class of executed instruction
system.cpu2.op_class::SimdCvt                       0      0.00%     76.43% # Class of executed instruction
system.cpu2.op_class::SimdMisc                      0      0.00%     76.43% # Class of executed instruction
system.cpu2.op_class::SimdMult                      0      0.00%     76.43% # Class of executed instruction
system.cpu2.op_class::SimdMultAcc                   0      0.00%     76.43% # Class of executed instruction
system.cpu2.op_class::SimdShift                     0      0.00%     76.43% # Class of executed instruction
system.cpu2.op_class::SimdShiftAcc                  0      0.00%     76.43% # Class of executed instruction
system.cpu2.op_class::SimdSqrt                      0      0.00%     76.43% # Class of executed instruction
system.cpu2.op_class::SimdFloatAdd                  0      0.00%     76.43% # Class of executed instruction
system.cpu2.op_class::SimdFloatAlu                  0      0.00%     76.43% # Class of executed instruction
system.cpu2.op_class::SimdFloatCmp                  0      0.00%     76.43% # Class of executed instruction
system.cpu2.op_class::SimdFloatCvt                  0      0.00%     76.43% # Class of executed instruction
system.cpu2.op_class::SimdFloatDiv                  0      0.00%     76.43% # Class of executed instruction
system.cpu2.op_class::SimdFloatMisc                 0      0.00%     76.43% # Class of executed instruction
system.cpu2.op_class::SimdFloatMult                 0      0.00%     76.43% # Class of executed instruction
system.cpu2.op_class::SimdFloatMultAcc              0      0.00%     76.43% # Class of executed instruction
system.cpu2.op_class::SimdFloatSqrt                 0      0.00%     76.43% # Class of executed instruction
system.cpu2.op_class::MemRead                  113659     14.59%     91.02% # Class of executed instruction
system.cpu2.op_class::MemWrite                  69961      8.98%    100.00% # Class of executed instruction
system.cpu2.op_class::IprAccess                     0      0.00%    100.00% # Class of executed instruction
system.cpu2.op_class::InstPrefetch                  0      0.00%    100.00% # Class of executed instruction
system.cpu2.op_class::total                    779095                       # Class of executed instruction
system.cpu3.apic_clk_domain.clock                8000                       # Clock period in ticks
system.cpu3.numCycles                       921441229                       # number of cpu cycles simulated
system.cpu3.numWorkItemsStarted                     0                       # number of work items this cpu started
system.cpu3.numWorkItemsCompleted                   0                       # number of work items this cpu completed
system.cpu3.kern.inst.arm                           0                       # number of arm instructions executed
system.cpu3.kern.inst.quiesce                       0                       # number of quiesce instructions executed
system.cpu3.committedInsts                    1001186                       # Number of instructions committed
system.cpu3.committedOps                      1937095                       # Number of ops (including micro ops) committed
system.cpu3.num_int_alu_accesses              1907501                       # Number of integer alu accesses
system.cpu3.num_fp_alu_accesses                  1778                       # Number of float alu accesses
system.cpu3.num_func_calls                      40750                       # number of times a function call or return occured
system.cpu3.num_conditional_control_insts       156896                       # number of instructions that are conditional controls
system.cpu3.num_int_insts                     1907501                       # number of integer instructions
system.cpu3.num_fp_insts                         1778                       # number of float instructions
system.cpu3.num_int_register_reads            3884654                       # number of times the integer registers were read
system.cpu3.num_int_register_writes           1553082                       # number of times the integer registers were written
system.cpu3.num_fp_register_reads                2988                       # number of times the floating registers were read
system.cpu3.num_fp_register_writes               1416                       # number of times the floating registers were written
system.cpu3.num_cc_register_reads             1109648                       # number of times the CC registers were read
system.cpu3.num_cc_register_writes             645700                       # number of times the CC registers were written
system.cpu3.num_mem_refs                       444382                       # number of memory refs
system.cpu3.num_load_insts                     273367                       # Number of load instructions
system.cpu3.num_store_insts                    171015                       # Number of store instructions
system.cpu3.num_idle_cycles              917333863.773891                       # Number of idle cycles
system.cpu3.num_busy_cycles              4107365.226109                       # Number of busy cycles
system.cpu3.not_idle_fraction                0.004458                       # Percentage of non-idle cycles
system.cpu3.idle_fraction                    0.995542                       # Percentage of idle cycles
system.cpu3.Branches                           213185                       # Number of branches fetched
system.cpu3.op_class::No_OpClass                19808      1.02%      1.02% # Class of executed instruction
system.cpu3.op_class::IntAlu                  1463455     75.55%     76.57% # Class of executed instruction
system.cpu3.op_class::IntMult                    2355      0.12%     76.69% # Class of executed instruction
system.cpu3.op_class::IntDiv                     5840      0.30%     76.99% # Class of executed instruction
system.cpu3.op_class::FloatAdd                   1344      0.07%     77.06% # Class of executed instruction
system.cpu3.op_class::FloatCmp                      0      0.00%     77.06% # Class of executed instruction
system.cpu3.op_class::FloatCvt                      0      0.00%     77.06% # Class of executed instruction
system.cpu3.op_class::FloatMult                     0      0.00%     77.06% # Class of executed instruction
system.cpu3.op_class::FloatDiv                      0      0.00%     77.06% # Class of executed instruction
system.cpu3.op_class::FloatSqrt                     0      0.00%     77.06% # Class of executed instruction
system.cpu3.op_class::SimdAdd                       0      0.00%     77.06% # Class of executed instruction
system.cpu3.op_class::SimdAddAcc                    0      0.00%     77.06% # Class of executed instruction
system.cpu3.op_class::SimdAlu                       0      0.00%     77.06% # Class of executed instruction
system.cpu3.op_class::SimdCmp                       0      0.00%     77.06% # Class of executed instruction
system.cpu3.op_class::SimdCvt                       0      0.00%     77.06% # Class of executed instruction
system.cpu3.op_class::SimdMisc                      0      0.00%     77.06% # Class of executed instruction
system.cpu3.op_class::SimdMult                      0      0.00%     77.06% # Class of executed instruction
system.cpu3.op_class::SimdMultAcc                   0      0.00%     77.06% # Class of executed instruction
system.cpu3.op_class::SimdShift                     0      0.00%     77.06% # Class of executed instruction
system.cpu3.op_class::SimdShiftAcc                  0      0.00%     77.06% # Class of executed instruction
system.cpu3.op_class::SimdSqrt                      0      0.00%     77.06% # Class of executed instruction
system.cpu3.op_class::SimdFloatAdd                  0      0.00%     77.06% # Class of executed instruction
system.cpu3.op_class::SimdFloatAlu                  0      0.00%     77.06% # Class of executed instruction
system.cpu3.op_class::SimdFloatCmp                  0      0.00%     77.06% # Class of executed instruction
system.cpu3.op_class::SimdFloatCvt                  0      0.00%     77.06% # Class of executed instruction
system.cpu3.op_class::SimdFloatDiv                  0      0.00%     77.06% # Class of executed instruction
system.cpu3.op_class::SimdFloatMisc                 0      0.00%     77.06% # Class of executed instruction
system.cpu3.op_class::SimdFloatMult                 0      0.00%     77.06% # Class of executed instruction
system.cpu3.op_class::SimdFloatMultAcc              0      0.00%     77.06% # Class of executed instruction
system.cpu3.op_class::SimdFloatSqrt                 0      0.00%     77.06% # Class of executed instruction
system.cpu3.op_class::MemRead                  273367     14.11%     91.17% # Class of executed instruction
system.cpu3.op_class::MemWrite                 171015      8.83%    100.00% # Class of executed instruction
system.cpu3.op_class::IprAccess                     0      0.00%    100.00% # Class of executed instruction
system.cpu3.op_class::InstPrefetch                  0      0.00%    100.00% # Class of executed instruction
system.cpu3.op_class::total                   1937184                       # Class of executed instruction
system.iobus.trans_dist::ReadReq                  101                       # Transaction distribution
system.iobus.trans_dist::ReadResp                 101                       # Transaction distribution
system.iobus.trans_dist::WriteReq                 566                       # Transaction distribution
system.iobus.trans_dist::WriteResp                566                       # Transaction distribution
system.iobus.trans_dist::MessageReq                18                       # Transaction distribution
system.iobus.trans_dist::MessageResp               18                       # Transaction distribution
system.iobus.pkt_count_system.pc.south_bridge.io_apic.int_master::system.ruby.l1_cntrl0.sequencer.pio-slave-port            4                       # Packet count per connected master and slave (bytes)
system.iobus.pkt_count_system.pc.south_bridge.io_apic.int_master::system.ruby.l1_cntrl1.sequencer.pio-slave-port            4                       # Packet count per connected master and slave (bytes)
system.iobus.pkt_count_system.pc.south_bridge.io_apic.int_master::system.ruby.l1_cntrl2.sequencer.pio-slave-port            4                       # Packet count per connected master and slave (bytes)
system.iobus.pkt_count_system.pc.south_bridge.io_apic.int_master::system.ruby.l1_cntrl3.sequencer.pio-slave-port            2                       # Packet count per connected master and slave (bytes)
system.iobus.pkt_count_system.pc.south_bridge.io_apic.int_master::total           14                       # Packet count per connected master and slave (bytes)
system.iobus.pkt_count_system.ruby.l1_cntrl0.sequencer.mem-master-port::system.pc.south_bridge.ide.pio           46                       # Packet count per connected master and slave (bytes)
system.iobus.pkt_count_system.ruby.l1_cntrl0.sequencer.mem-master-port::system.pc.south_bridge.io_apic.pio            6                       # Packet count per connected master and slave (bytes)
system.iobus.pkt_count_system.ruby.l1_cntrl0.sequencer.mem-master-port::system.pc.com_1.pio           22                       # Packet count per connected master and slave (bytes)
system.iobus.pkt_count_system.ruby.l1_cntrl0.sequencer.mem-master-port::system.ruby.l1_cntrl0.sequencer.pio-slave-port          248                       # Packet count per connected master and slave (bytes)
system.iobus.pkt_count_system.ruby.l1_cntrl0.sequencer.mem-master-port::system.ruby.l1_cntrl1.sequencer.pio-slave-port            2                       # Packet count per connected master and slave (bytes)
system.iobus.pkt_count_system.ruby.l1_cntrl0.sequencer.mem-master-port::total          324                       # Packet count per connected master and slave (bytes)
system.iobus.pkt_count_system.ruby.l1_cntrl1.sequencer.mem-master-port::system.pc.south_bridge.ide.pio           12                       # Packet count per connected master and slave (bytes)
system.iobus.pkt_count_system.ruby.l1_cntrl1.sequencer.mem-master-port::system.pc.south_bridge.io_apic.pio            8                       # Packet count per connected master and slave (bytes)
system.iobus.pkt_count_system.ruby.l1_cntrl1.sequencer.mem-master-port::system.ruby.l1_cntrl0.sequencer.pio-slave-port            4                       # Packet count per connected master and slave (bytes)
system.iobus.pkt_count_system.ruby.l1_cntrl1.sequencer.mem-master-port::system.ruby.l1_cntrl1.sequencer.pio-slave-port          270                       # Packet count per connected master and slave (bytes)
system.iobus.pkt_count_system.ruby.l1_cntrl1.sequencer.mem-master-port::system.ruby.l1_cntrl2.sequencer.pio-slave-port            8                       # Packet count per connected master and slave (bytes)
system.iobus.pkt_count_system.ruby.l1_cntrl1.sequencer.mem-master-port::total          302                       # Packet count per connected master and slave (bytes)
system.iobus.pkt_count_system.ruby.l1_cntrl2.sequencer.mem-master-port::system.pc.south_bridge.ide.pio           34                       # Packet count per connected master and slave (bytes)
system.iobus.pkt_count_system.ruby.l1_cntrl2.sequencer.mem-master-port::system.pc.south_bridge.io_apic.pio           14                       # Packet count per connected master and slave (bytes)
system.iobus.pkt_count_system.ruby.l1_cntrl2.sequencer.mem-master-port::system.pc.com_1.pio          162                       # Packet count per connected master and slave (bytes)
system.iobus.pkt_count_system.ruby.l1_cntrl2.sequencer.mem-master-port::system.ruby.l1_cntrl2.sequencer.pio-slave-port          252                       # Packet count per connected master and slave (bytes)
system.iobus.pkt_count_system.ruby.l1_cntrl2.sequencer.mem-master-port::system.ruby.l1_cntrl3.sequencer.pio-slave-port            2                       # Packet count per connected master and slave (bytes)
system.iobus.pkt_count_system.ruby.l1_cntrl2.sequencer.mem-master-port::total          464                       # Packet count per connected master and slave (bytes)
system.iobus.pkt_count_system.ruby.l1_cntrl3.sequencer.mem-master-port::system.pc.south_bridge.io_apic.pio            8                       # Packet count per connected master and slave (bytes)
system.iobus.pkt_count_system.ruby.l1_cntrl3.sequencer.mem-master-port::system.ruby.l1_cntrl0.sequencer.pio-slave-port            2                       # Packet count per connected master and slave (bytes)
system.iobus.pkt_count_system.ruby.l1_cntrl3.sequencer.mem-master-port::system.ruby.l1_cntrl1.sequencer.pio-slave-port            2                       # Packet count per connected master and slave (bytes)
system.iobus.pkt_count_system.ruby.l1_cntrl3.sequencer.mem-master-port::system.ruby.l1_cntrl2.sequencer.pio-slave-port            2                       # Packet count per connected master and slave (bytes)
system.iobus.pkt_count_system.ruby.l1_cntrl3.sequencer.mem-master-port::system.ruby.l1_cntrl3.sequencer.pio-slave-port          252                       # Packet count per connected master and slave (bytes)
system.iobus.pkt_count_system.ruby.l1_cntrl3.sequencer.mem-master-port::total          266                       # Packet count per connected master and slave (bytes)
system.iobus.pkt_count::total                    1370                       # Packet count per connected master and slave (bytes)
system.iobus.pkt_size_system.pc.south_bridge.io_apic.int_master::system.ruby.l1_cntrl0.sequencer.pio-slave-port            8                       # Cumulative packet size per connected master and slave (bytes)
system.iobus.pkt_size_system.pc.south_bridge.io_apic.int_master::system.ruby.l1_cntrl1.sequencer.pio-slave-port            8                       # Cumulative packet size per connected master and slave (bytes)
system.iobus.pkt_size_system.pc.south_bridge.io_apic.int_master::system.ruby.l1_cntrl2.sequencer.pio-slave-port            8                       # Cumulative packet size per connected master and slave (bytes)
system.iobus.pkt_size_system.pc.south_bridge.io_apic.int_master::system.ruby.l1_cntrl3.sequencer.pio-slave-port            4                       # Cumulative packet size per connected master and slave (bytes)
system.iobus.pkt_size_system.pc.south_bridge.io_apic.int_master::total           28                       # Cumulative packet size per connected master and slave (bytes)
system.iobus.pkt_size_system.ruby.l1_cntrl0.sequencer.mem-master-port::system.pc.south_bridge.ide.pio           26                       # Cumulative packet size per connected master and slave (bytes)
system.iobus.pkt_size_system.ruby.l1_cntrl0.sequencer.mem-master-port::system.pc.south_bridge.io_apic.pio           12                       # Cumulative packet size per connected master and slave (bytes)
system.iobus.pkt_size_system.ruby.l1_cntrl0.sequencer.mem-master-port::system.pc.com_1.pio           11                       # Cumulative packet size per connected master and slave (bytes)
system.iobus.pkt_size_system.ruby.l1_cntrl0.sequencer.mem-master-port::system.ruby.l1_cntrl0.sequencer.pio-slave-port          496                       # Cumulative packet size per connected master and slave (bytes)
system.iobus.pkt_size_system.ruby.l1_cntrl0.sequencer.mem-master-port::system.ruby.l1_cntrl1.sequencer.pio-slave-port            4                       # Cumulative packet size per connected master and slave (bytes)
system.iobus.pkt_size_system.ruby.l1_cntrl0.sequencer.mem-master-port::total          549                       # Cumulative packet size per connected master and slave (bytes)
system.iobus.pkt_size_system.ruby.l1_cntrl1.sequencer.mem-master-port::system.pc.south_bridge.ide.pio            6                       # Cumulative packet size per connected master and slave (bytes)
system.iobus.pkt_size_system.ruby.l1_cntrl1.sequencer.mem-master-port::system.pc.south_bridge.io_apic.pio           16                       # Cumulative packet size per connected master and slave (bytes)
system.iobus.pkt_size_system.ruby.l1_cntrl1.sequencer.mem-master-port::system.ruby.l1_cntrl0.sequencer.pio-slave-port            8                       # Cumulative packet size per connected master and slave (bytes)
system.iobus.pkt_size_system.ruby.l1_cntrl1.sequencer.mem-master-port::system.ruby.l1_cntrl1.sequencer.pio-slave-port          540                       # Cumulative packet size per connected master and slave (bytes)
system.iobus.pkt_size_system.ruby.l1_cntrl1.sequencer.mem-master-port::system.ruby.l1_cntrl2.sequencer.pio-slave-port           16                       # Cumulative packet size per connected master and slave (bytes)
system.iobus.pkt_size_system.ruby.l1_cntrl1.sequencer.mem-master-port::total          586                       # Cumulative packet size per connected master and slave (bytes)
system.iobus.pkt_size_system.ruby.l1_cntrl2.sequencer.mem-master-port::system.pc.south_bridge.ide.pio           20                       # Cumulative packet size per connected master and slave (bytes)
system.iobus.pkt_size_system.ruby.l1_cntrl2.sequencer.mem-master-port::system.pc.south_bridge.io_apic.pio           28                       # Cumulative packet size per connected master and slave (bytes)
system.iobus.pkt_size_system.ruby.l1_cntrl2.sequencer.mem-master-port::system.pc.com_1.pio           81                       # Cumulative packet size per connected master and slave (bytes)
system.iobus.pkt_size_system.ruby.l1_cntrl2.sequencer.mem-master-port::system.ruby.l1_cntrl2.sequencer.pio-slave-port          504                       # Cumulative packet size per connected master and slave (bytes)
system.iobus.pkt_size_system.ruby.l1_cntrl2.sequencer.mem-master-port::system.ruby.l1_cntrl3.sequencer.pio-slave-port            4                       # Cumulative packet size per connected master and slave (bytes)
system.iobus.pkt_size_system.ruby.l1_cntrl2.sequencer.mem-master-port::total          637                       # Cumulative packet size per connected master and slave (bytes)
system.iobus.pkt_size_system.ruby.l1_cntrl3.sequencer.mem-master-port::system.pc.south_bridge.io_apic.pio           16                       # Cumulative packet size per connected master and slave (bytes)
system.iobus.pkt_size_system.ruby.l1_cntrl3.sequencer.mem-master-port::system.ruby.l1_cntrl0.sequencer.pio-slave-port            4                       # Cumulative packet size per connected master and slave (bytes)
system.iobus.pkt_size_system.ruby.l1_cntrl3.sequencer.mem-master-port::system.ruby.l1_cntrl1.sequencer.pio-slave-port            4                       # Cumulative packet size per connected master and slave (bytes)
system.iobus.pkt_size_system.ruby.l1_cntrl3.sequencer.mem-master-port::system.ruby.l1_cntrl2.sequencer.pio-slave-port            4                       # Cumulative packet size per connected master and slave (bytes)
system.iobus.pkt_size_system.ruby.l1_cntrl3.sequencer.mem-master-port::system.ruby.l1_cntrl3.sequencer.pio-slave-port          504                       # Cumulative packet size per connected master and slave (bytes)
system.iobus.pkt_size_system.ruby.l1_cntrl3.sequencer.mem-master-port::total          532                       # Cumulative packet size per connected master and slave (bytes)
system.iobus.pkt_size::total                     2332                       # Cumulative packet size per connected master and slave (bytes)
system.iobus.reqLayer2.occupancy                80500                       # Layer occupancy (ticks)
system.iobus.reqLayer2.utilization                0.0                       # Layer utilization (%)
system.iobus.reqLayer8.occupancy                33996                       # Layer occupancy (ticks)
system.iobus.reqLayer8.utilization                0.0                       # Layer utilization (%)
system.iobus.reqLayer12.occupancy              121000                       # Layer occupancy (ticks)
system.iobus.reqLayer12.utilization               0.0                       # Layer utilization (%)
system.iobus.reqLayer17.occupancy              317999                       # Layer occupancy (ticks)
system.iobus.reqLayer17.utilization               0.0                       # Layer utilization (%)
system.iobus.reqLayer18.occupancy              308995                       # Layer occupancy (ticks)
system.iobus.reqLayer18.utilization               0.0                       # Layer utilization (%)
system.iobus.reqLayer19.occupancy              327498                       # Layer occupancy (ticks)
system.iobus.reqLayer19.utilization               0.0                       # Layer utilization (%)
system.iobus.reqLayer20.occupancy              311998                       # Layer occupancy (ticks)
system.iobus.reqLayer20.utilization               0.0                       # Layer utilization (%)
system.iobus.respLayer0.occupancy                8998                       # Layer occupancy (ticks)
system.iobus.respLayer0.utilization               0.0                       # Layer utilization (%)
system.iobus.respLayer2.occupancy              242000                       # Layer occupancy (ticks)
system.iobus.respLayer2.utilization               0.0                       # Layer utilization (%)
system.iobus.respLayer4.occupancy              229500                       # Layer occupancy (ticks)
system.iobus.respLayer4.utilization               0.0                       # Layer utilization (%)
system.iobus.respLayer6.occupancy              362000                       # Layer occupancy (ticks)
system.iobus.respLayer6.utilization               0.0                       # Layer utilization (%)
system.iobus.respLayer8.occupancy              201000                       # Layer occupancy (ticks)
system.iobus.respLayer8.utilization               0.0                       # Layer utilization (%)
system.pc.south_bridge.ide.disks.dma_read_full_pages            0                       # Number of full page size DMA reads (not PRD).
system.pc.south_bridge.ide.disks.dma_read_bytes            0                       # Number of bytes transfered via DMA reads (not PRD).
system.pc.south_bridge.ide.disks.dma_read_txs            0                       # Number of DMA read transactions (not PRD).
system.pc.south_bridge.ide.disks.dma_write_full_pages           33                       # Number of full page size DMA writes.
system.pc.south_bridge.ide.disks.dma_write_bytes       135168                       # Number of bytes transfered via DMA writes.
system.pc.south_bridge.ide.disks.dma_write_txs           33                       # Number of DMA write transactions.
system.ruby.clk_domain.clock                      500                       # Clock period in ticks
system.ruby.outstanding_req_hist_seqr::bucket_size            1                      
system.ruby.outstanding_req_hist_seqr::max_bucket            9                      
system.ruby.outstanding_req_hist_seqr::samples    461989204                      
system.ruby.outstanding_req_hist_seqr::mean     1.000000                      
system.ruby.outstanding_req_hist_seqr::gmean     1.000000                      
system.ruby.outstanding_req_hist_seqr::stdev     0.000666                      
system.ruby.outstanding_req_hist_seqr    |           0      0.00%      0.00% |   461988999    100.00%    100.00% |         205      0.00%    100.00% |           0      0.00%    100.00% |           0      0.00%    100.00% |           0      0.00%    100.00% |           0      0.00%    100.00% |           0      0.00%    100.00% |           0      0.00%    100.00% |           0      0.00%    100.00%
system.ruby.outstanding_req_hist_seqr::total    461989204                      
system.ruby.latency_hist_seqr::bucket_size          128                      
system.ruby.latency_hist_seqr::max_bucket         1279                      
system.ruby.latency_hist_seqr::samples      461989204                      
system.ruby.latency_hist_seqr::mean          1.007190                      
system.ruby.latency_hist_seqr::gmean         1.000944                      
system.ruby.latency_hist_seqr::stdev         0.634801                      
system.ruby.latency_hist_seqr            |   461986241    100.00%    100.00% |        2860      0.00%    100.00% |          15      0.00%    100.00% |          23      0.00%    100.00% |          44      0.00%    100.00% |          21      0.00%    100.00% |           0      0.00%    100.00% |           0      0.00%    100.00% |           0      0.00%    100.00% |           0      0.00%    100.00%
system.ruby.latency_hist_seqr::total        461989204                      
system.ruby.hit_latency_hist_seqr::bucket_size            1                      
system.ruby.hit_latency_hist_seqr::max_bucket            9                      
system.ruby.hit_latency_hist_seqr::samples    461843142                      
system.ruby.hit_latency_hist_seqr::mean             1                      
system.ruby.hit_latency_hist_seqr::gmean            1                      
system.ruby.hit_latency_hist_seqr        |           0      0.00%      0.00% |   461843142    100.00%    100.00% |           0      0.00%    100.00% |           0      0.00%    100.00% |           0      0.00%    100.00% |           0      0.00%    100.00% |           0      0.00%    100.00% |           0      0.00%    100.00% |           0      0.00%    100.00% |           0      0.00%    100.00%
system.ruby.hit_latency_hist_seqr::total    461843142                      
system.ruby.miss_latency_hist_seqr::bucket_size          128                      
system.ruby.miss_latency_hist_seqr::max_bucket         1279                      
[...]
system.ruby.L1Cache_Controller.S.Store::total         8593                      
system.ruby.L1Cache_Controller.S.L1_Replacement |       24019      9.37%      9.37% |       90354     35.23%     44.60% |       42574     16.60%     61.20% |       99496     38.80%    100.00%
system.ruby.L1Cache_Controller.S.L1_Replacement::total       256443                      
system.ruby.L1Cache_Controller.S.Fwd_GETS |         697     29.90%     29.90% |         527     22.61%     52.51% |         694     29.77%     82.28% |         413     17.72%    100.00%
system.ruby.L1Cache_Controller.S.Fwd_GETS::total         2331                      
system.ruby.L1Cache_Controller.S.Inv     |         672     16.80%     16.80% |         990     24.75%     41.55% |        1555     38.88%     80.42% |         783     19.57%    100.00%
system.ruby.L1Cache_Controller.S.Inv::total         4000                      
system.ruby.L1Cache_Controller.O.Load    |         639     13.98%     13.98% |         730     15.97%     29.96% |        1477     32.32%     62.28% |        1724     37.72%    100.00%
system.ruby.L1Cache_Controller.O.Load::total         4570                      
system.ruby.L1Cache_Controller.O.Store   |          22     14.29%     14.29% |          38     24.68%     38.96% |           9      5.84%     44.81% |          85     55.19%    100.00%
system.ruby.L1Cache_Controller.O.Store::total          154                      
system.ruby.L1Cache_Controller.O.L1_Replacement |         144     20.08%     20.08% |         219     30.54%     50.63% |          69      9.62%     60.25% |         285     39.75%    100.00%
system.ruby.L1Cache_Controller.O.L1_Replacement::total          717                      
system.ruby.L1Cache_Controller.O.Fwd_GETX |         499     18.15%     18.15% |         412     14.99%     33.14% |         593     21.57%     54.71% |        1245     45.29%    100.00%
system.ruby.L1Cache_Controller.O.Fwd_GETX::total         2749                      
system.ruby.L1Cache_Controller.O.Fwd_GETS |         357     15.23%     15.23% |         209      8.92%     24.15% |         645     27.52%     51.66% |        1133     48.34%    100.00%
system.ruby.L1Cache_Controller.O.Fwd_GETS::total         2344                      
system.ruby.L1Cache_Controller.M.Load    |       31008      1.70%      1.70% |     1669986     91.57%     93.27% |       47370      2.60%     95.87% |       75320      4.13%    100.00%
system.ruby.L1Cache_Controller.M.Load::total      1823684                      
system.ruby.L1Cache_Controller.M.Store   |        2057     20.64%     20.64% |        1761     17.67%     38.31% |        3191     32.02%     70.33% |        2957     29.67%    100.00%
system.ruby.L1Cache_Controller.M.Store::total         9966                      
system.ruby.L1Cache_Controller.M.L1_Replacement |        1708     17.80%     17.80% |        2106     21.94%     39.74% |        2108     21.97%     61.71% |        3675     38.29%    100.00%
system.ruby.L1Cache_Controller.M.L1_Replacement::total         9597                      
system.ruby.L1Cache_Controller.M.Fwd_GETX |         212     14.58%     14.58% |         130      8.94%     23.52% |         238     16.37%     39.89% |         874     60.11%    100.00%
system.ruby.L1Cache_Controller.M.Fwd_GETX::total         1454                      
system.ruby.L1Cache_Controller.M.Fwd_GETS |         657     18.60%     18.60% |         575     16.28%     34.87% |         657     18.60%     53.47% |        1644     46.53%    100.00%
system.ruby.L1Cache_Controller.M.Fwd_GETS::total         3533                      
system.ruby.L1Cache_Controller.M_W.Load  |        4231     21.82%     21.82% |        2744     14.15%     35.97% |        5530     28.52%     64.49% |        6886     35.51%    100.00%
system.ruby.L1Cache_Controller.M_W.Load::total        19391                      
system.ruby.L1Cache_Controller.M_W.Store |         655     16.17%     16.17% |        1044     25.77%     41.94% |         763     18.83%     60.78% |        1589     39.22%    100.00%
system.ruby.L1Cache_Controller.M_W.Store::total         4051                      
system.ruby.L1Cache_Controller.M_W.Fwd_GETX |           0      0.00%      0.00% |           3     18.75%     18.75% |           1      6.25%     25.00% |          12     75.00%    100.00%
system.ruby.L1Cache_Controller.M_W.Fwd_GETX::total           16                      
system.ruby.L1Cache_Controller.M_W.Fwd_GETS |          10      6.90%      6.90% |          39     26.90%     33.79% |          16     11.03%     44.83% |          80     55.17%    100.00%
system.ruby.L1Cache_Controller.M_W.Fwd_GETS::total          145                      
system.ruby.L1Cache_Controller.M_W.Use_Timeout |        4730     19.19%     19.19% |        4690     19.03%     38.22% |        6115     24.81%     63.03% |        9111     36.97%    100.00%
system.ruby.L1Cache_Controller.M_W.Use_Timeout::total        24646                      
system.ruby.L1Cache_Controller.MM.Load   |      236594      0.83%      0.83% |    24381873     85.81%     86.64% |      444243      1.56%     88.21% |     3350882     11.79%    100.00%
system.ruby.L1Cache_Controller.MM.Load::total     28413592                      
system.ruby.L1Cache_Controller.MM.Store  |      227359      0.93%      0.93% |    21202883     86.27%     87.19% |      479703      1.95%     89.14% |     2668348     10.86%    100.00%
system.ruby.L1Cache_Controller.MM.Store::total     24578293                      
system.ruby.L1Cache_Controller.MM.L1_Replacement |        8927     13.31%     13.31% |       20492     30.55%     43.87% |       16254     24.24%     68.10% |       21393     31.90%    100.00%
system.ruby.L1Cache_Controller.MM.L1_Replacement::total        67066                      
system.ruby.L1Cache_Controller.MM.Fwd_GETX |         768     20.58%     20.58% |        1235     33.09%     53.67% |         518     13.88%     67.55% |        1211     32.45%    100.00%
system.ruby.L1Cache_Controller.MM.Fwd_GETX::total         3732                      
system.ruby.L1Cache_Controller.MM.Fwd_GETS |        1932     27.90%     27.90% |        1604     23.16%     51.06% |        1274     18.40%     69.46% |        2115     30.54%    100.00%
system.ruby.L1Cache_Controller.MM.Fwd_GETS::total         6925                      
system.ruby.L1Cache_Controller.MM.Fwd_DMA |          13     43.33%     43.33% |           0      0.00%     43.33% |          17     56.67%    100.00% |           0      0.00%    100.00%
system.ruby.L1Cache_Controller.MM.Fwd_DMA::total           30                      
system.ruby.L1Cache_Controller.MM_W.Load |         869     15.45%     15.45% |        1613     28.68%     44.13% |        1185     21.07%     65.20% |        1957     34.80%    100.00%
system.ruby.L1Cache_Controller.MM_W.Load::total         5624                      
system.ruby.L1Cache_Controller.MM_W.Store |       50742     18.13%     18.13% |       56885     20.32%     38.45% |       71412     25.51%     63.96% |      100871     36.04%    100.00%
system.ruby.L1Cache_Controller.MM_W.Store::total       279910                      
system.ruby.L1Cache_Controller.MM_W.Fwd_GETX |           3    100.00%    100.00% |           0      0.00%    100.00% |           0      0.00%    100.00% |           0      0.00%    100.00%
system.ruby.L1Cache_Controller.MM_W.Fwd_GETX::total            3                      
system.ruby.L1Cache_Controller.MM_W.Fwd_GETS |          13      6.44%      6.44% |          64     31.68%     38.12% |          31     15.35%     53.47% |          94     46.53%    100.00%
system.ruby.L1Cache_Controller.MM_W.Fwd_GETS::total          202                      
system.ruby.L1Cache_Controller.MM_W.Use_Timeout |       10390     15.11%     15.11% |       21320     31.01%     46.12% |       15434     22.45%     68.56% |       21616     31.44%    100.00%
system.ruby.L1Cache_Controller.MM_W.Use_Timeout::total        68760                      
system.ruby.L1Cache_Controller.IM.Ack    |        1629     24.36%     24.36% |        1523     22.78%     47.14% |        2270     33.95%     81.09% |        1264     18.91%    100.00%
system.ruby.L1Cache_Controller.IM.Ack::total         6686                      
system.ruby.L1Cache_Controller.IM.Exclusive_Data |        8735     15.61%     15.61% |       19538     34.91%     50.52% |       10075     18.00%     68.53% |       17614     31.47%    100.00%
system.ruby.L1Cache_Controller.IM.Exclusive_Data::total        55962                      
system.ruby.L1Cache_Controller.SM.Ack    |        1418     47.74%     47.74% |         583     19.63%     67.37% |         585     19.70%     87.07% |         384     12.93%    100.00%
system.ruby.L1Cache_Controller.SM.Ack::total         2970                      
system.ruby.L1Cache_Controller.SM.Exclusive_Data |         978     11.38%     11.38% |         700      8.15%     19.53% |        4587     53.38%     72.91% |        2328     27.09%    100.00%
system.ruby.L1Cache_Controller.SM.Exclusive_Data::total         8593                      
system.ruby.L1Cache_Controller.OM.Own_GETX |          22     14.29%     14.29% |          38     24.68%     38.96% |           9      5.84%     44.81% |          85     55.19%    100.00%
system.ruby.L1Cache_Controller.OM.Own_GETX::total          154                      
system.ruby.L1Cache_Controller.OM.Ack    |         829     34.07%     34.07% |         142      5.84%     39.91% |         628     25.81%     65.72% |         834     34.28%    100.00%
system.ruby.L1Cache_Controller.OM.Ack::total         2433                      
system.ruby.L1Cache_Controller.OM.All_acks |        9735     15.04%     15.04% |       20276     31.33%     46.38% |       14671     22.67%     69.05% |       20027     30.95%    100.00%
system.ruby.L1Cache_Controller.OM.All_acks::total        64709                      
system.ruby.L1Cache_Controller.IS.Data   |       26442      9.82%      9.82% |       92282     34.26%     44.07% |       48659     18.06%     62.14% |      102003     37.86%    100.00%
system.ruby.L1Cache_Controller.IS.Data::total       269386                      
system.ruby.L1Cache_Controller.IS.Exclusive_Data |        5385     18.77%     18.77% |        5734     19.98%     38.75% |        6878     23.97%     62.71% |       10700     37.29%    100.00%
system.ruby.L1Cache_Controller.IS.Exclusive_Data::total        28697                      
system.ruby.L1Cache_Controller.SI.Load   |           0      0.00%      0.00% |           0      0.00%      0.00% |           3     60.00%     60.00% |           2     40.00%    100.00%
system.ruby.L1Cache_Controller.SI.Load::total            5                      
system.ruby.L1Cache_Controller.SI.Ifetch |           0      0.00%      0.00% |           0      0.00%      0.00% |           8    100.00%    100.00% |           0      0.00%    100.00%
system.ruby.L1Cache_Controller.SI.Ifetch::total            8                      
system.ruby.L1Cache_Controller.SI.Writeback_Ack |       21215      8.90%      8.90% |       86618     36.33%     45.23% |       37002     15.52%     60.75% |       93580     39.25%    100.00%
system.ruby.L1Cache_Controller.SI.Writeback_Ack::total       238415                      
system.ruby.L1Cache_Controller.SI.Writeback_Ack_Data |        2804     15.55%     15.55% |        3736     20.72%     36.28% |        5572     30.91%     67.18% |        5916     32.82%    100.00%
system.ruby.L1Cache_Controller.SI.Writeback_Ack_Data::total        18028                      
system.ruby.L1Cache_Controller.OI.Writeback_Ack_Data |         144     20.08%     20.08% |         219     30.54%     50.63% |          69      9.62%     60.25% |         285     39.75%    100.00%
system.ruby.L1Cache_Controller.OI.Writeback_Ack_Data::total          717                      
system.ruby.L1Cache_Controller.MI.Load   |           0      0.00%      0.00% |          18    100.00%    100.00% |           0      0.00%    100.00% |           0      0.00%    100.00%
system.ruby.L1Cache_Controller.MI.Load::total           18                      
system.ruby.L1Cache_Controller.MI.Writeback_Ack_Data |       10635     13.87%     13.87% |       22598     29.48%     43.35% |       18362     23.95%     67.30% |       25068     32.70%    100.00%
system.ruby.L1Cache_Controller.MI.Writeback_Ack_Data::total        76663                      
system.ruby.L2Cache_Controller.L1_GETS         298292      0.00%      0.00%
system.ruby.L2Cache_Controller.L1_GETX          64712      0.00%      0.00%
system.ruby.L2Cache_Controller.L1_PUTO            717      0.00%      0.00%
system.ruby.L2Cache_Controller.L1_PUTX          76663      0.00%      0.00%
system.ruby.L2Cache_Controller.L1_PUTS_only       206766      0.00%      0.00%
system.ruby.L2Cache_Controller.L1_PUTS          49689      0.00%      0.00%
system.ruby.L2Cache_Controller.Fwd_DMA             30      0.00%      0.00%
system.ruby.L2Cache_Controller.All_Acks         24576      0.00%      0.00%
system.ruby.L2Cache_Controller.Data             48099      0.00%      0.00%
system.ruby.L2Cache_Controller.L1_WBCLEANDATA        18028      0.00%      0.00%
system.ruby.L2Cache_Controller.L1_WBDIRTYDATA        77380      0.00%      0.00%
system.ruby.L2Cache_Controller.Writeback_Ack         9929      0.00%      0.00%
system.ruby.L2Cache_Controller.Unblock         507801      0.00%      0.00%
system.ruby.L2Cache_Controller.Exclusive_Unblock        93406      0.00%      0.00%
system.ruby.L2Cache_Controller.DmaAck              30      0.00%      0.00%
system.ruby.L2Cache_Controller.L2_Replacement        19376      0.00%      0.00%
system.ruby.L2Cache_Controller.NP.L1_GETS        23523      0.00%      0.00%
system.ruby.L2Cache_Controller.NP.L1_GETX        15222      0.00%      0.00%
system.ruby.L2Cache_Controller.ILS.L1_GETS         2331      0.00%      0.00%
system.ruby.L2Cache_Controller.ILS.L1_GETX         6004      0.00%      0.00%
system.ruby.L2Cache_Controller.ILS.L1_PUTS_only        16312      0.00%      0.00%
system.ruby.L2Cache_Controller.ILS.L1_PUTS         1716      0.00%      0.00%
system.ruby.L2Cache_Controller.ILX.L1_GETS        10458      0.00%      0.00%
system.ruby.L2Cache_Controller.ILX.L1_GETX         5186      0.00%      0.00%
system.ruby.L2Cache_Controller.ILX.L1_PUTX        76663      0.00%      0.00%
system.ruby.L2Cache_Controller.ILX.Fwd_DMA           30      0.00%      0.00%
system.ruby.L2Cache_Controller.ILOX.L1_GETS          784      0.00%      0.00%
system.ruby.L2Cache_Controller.ILOX.L1_GETX          119      0.00%      0.00%
system.ruby.L2Cache_Controller.ILOX.L1_PUTO          247      0.00%      0.00%
system.ruby.L2Cache_Controller.ILOSX.L1_GETS         1560      0.00%      0.00%
system.ruby.L2Cache_Controller.ILOSX.L1_GETX         2784      0.00%      0.00%
system.ruby.L2Cache_Controller.ILOSX.L1_PUTO          470      0.00%      0.00%
system.ruby.L2Cache_Controller.ILOSX.L1_PUTS_only         1169      0.00%      0.00%
system.ruby.L2Cache_Controller.ILOSX.L1_PUTS          350      0.00%      0.00%
system.ruby.L2Cache_Controller.S.L1_GETS       189640      0.00%      0.00%
system.ruby.L2Cache_Controller.S.L1_GETX         1910      0.00%      0.00%
system.ruby.L2Cache_Controller.S.L2_Replacement         8944      0.00%      0.00%
system.ruby.L2Cache_Controller.OLSX.L1_GETS          693      0.00%      0.00%
system.ruby.L2Cache_Controller.OLSX.L1_GETX          212      0.00%      0.00%
system.ruby.L2Cache_Controller.OLSX.L1_PUTS_only          191      0.00%      0.00%
system.ruby.L2Cache_Controller.OLSX.L1_PUTS          611      0.00%      0.00%
system.ruby.L2Cache_Controller.OLSX.L2_Replacement           25      0.00%      0.00%
system.ruby.L2Cache_Controller.SLS.L1_GETS        47322      0.00%      0.00%
system.ruby.L2Cache_Controller.SLS.L1_GETX         1440      0.00%      0.00%
system.ruby.L2Cache_Controller.SLS.L1_PUTS_only       189091      0.00%      0.00%
system.ruby.L2Cache_Controller.SLS.L1_PUTS        47003      0.00%      0.00%
system.ruby.L2Cache_Controller.SLS.L2_Replacement          503      0.00%      0.00%
system.ruby.L2Cache_Controller.M.L1_GETS        21772      0.00%      0.00%
system.ruby.L2Cache_Controller.M.L1_GETX        31832      0.00%      0.00%
system.ruby.L2Cache_Controller.M.L2_Replacement         9904      0.00%      0.00%
system.ruby.L2Cache_Controller.ILOXW.L1_WBDIRTYDATA          247      0.00%      0.00%
system.ruby.L2Cache_Controller.ILOXW.Unblock         1169      0.00%      0.00%
system.ruby.L2Cache_Controller.ILOSXW.L1_WBDIRTYDATA          470      0.00%      0.00%
system.ruby.L2Cache_Controller.ILOSXW.Unblock          350      0.00%      0.00%
system.ruby.L2Cache_Controller.SLSW.L1_PUTS            5      0.00%      0.00%
system.ruby.L2Cache_Controller.SLSW.Unblock        47003      0.00%      0.00%
system.ruby.L2Cache_Controller.ILSW.L1_PUTS            1      0.00%      0.00%
system.ruby.L2Cache_Controller.ILSW.L1_WBCLEANDATA         1716      0.00%      0.00%
system.ruby.L2Cache_Controller.IW.L1_WBCLEANDATA        16312      0.00%      0.00%
system.ruby.L2Cache_Controller.SW.Unblock       189091      0.00%      0.00%
system.ruby.L2Cache_Controller.OXW.Unblock          191      0.00%      0.00%
system.ruby.L2Cache_Controller.OLSXW.L1_PUTS            2      0.00%      0.00%
system.ruby.L2Cache_Controller.OLSXW.Unblock          611      0.00%      0.00%
system.ruby.L2Cache_Controller.ILXW.L1_WBDIRTYDATA        76663      0.00%      0.00%
system.ruby.L2Cache_Controller.IFLS.L1_PUTS_only            1      0.00%      0.00%
system.ruby.L2Cache_Controller.IFLS.Unblock         2331      0.00%      0.00%
system.ruby.L2Cache_Controller.IFLOX.Unblock          784      0.00%      0.00%
system.ruby.L2Cache_Controller.IFLOX.Exclusive_Unblock          212      0.00%      0.00%
system.ruby.L2Cache_Controller.IFLOXX.L1_GETS           61      0.00%      0.00%
system.ruby.L2Cache_Controller.IFLOXX.L1_GETX            3      0.00%      0.00%
system.ruby.L2Cache_Controller.IFLOXX.Unblock         3533      0.00%      0.00%
system.ruby.L2Cache_Controller.IFLOXX.Exclusive_Unblock        12230      0.00%      0.00%
system.ruby.L2Cache_Controller.IFLOSX.Unblock         1560      0.00%      0.00%
system.ruby.L2Cache_Controller.IFLXO.L1_GETS           44      0.00%      0.00%
system.ruby.L2Cache_Controller.IFLXO.Exclusive_Unblock         2784      0.00%      0.00%
system.ruby.L2Cache_Controller.IGS.L1_GETS           95      0.00%      0.00%
system.ruby.L2Cache_Controller.IGS.Data         23523      0.00%      0.00%
system.ruby.L2Cache_Controller.IGS.Unblock        23523      0.00%      0.00%
system.ruby.L2Cache_Controller.IGM.Data         17132      0.00%      0.00%
system.ruby.L2Cache_Controller.IGMLS.Data         7444      0.00%      0.00%
system.ruby.L2Cache_Controller.IGMO.All_Acks        24576      0.00%      0.00%
system.ruby.L2Cache_Controller.IGMO.Exclusive_Unblock        24576      0.00%      0.00%
system.ruby.L2Cache_Controller.MM.Exclusive_Unblock        31832      0.00%      0.00%
system.ruby.L2Cache_Controller.SS.L1_GETS            4      0.00%      0.00%
system.ruby.L2Cache_Controller.SS.Unblock       189640      0.00%      0.00%
system.ruby.L2Cache_Controller.OO.Exclusive_Unblock        21772      0.00%      0.00%
system.ruby.L2Cache_Controller.OLSXS.Unblock          693      0.00%      0.00%
system.ruby.L2Cache_Controller.SLSS.L1_GETS            5      0.00%      0.00%
system.ruby.L2Cache_Controller.SLSS.L1_PUTS_only            2      0.00%      0.00%
system.ruby.L2Cache_Controller.SLSS.L1_PUTS            1      0.00%      0.00%
system.ruby.L2Cache_Controller.SLSS.Unblock        47322      0.00%      0.00%
system.ruby.L2Cache_Controller.MI.Writeback_Ack         9904      0.00%      0.00%
system.ruby.L2Cache_Controller.OLSI.Writeback_Ack           25      0.00%      0.00%
system.ruby.L2Cache_Controller.ILXD.DmaAck           30      0.00%      0.00%

---------- End Simulation Statistics   ----------
