
---------- Begin Simulation Statistics ----------
sim_seconds                                  3.589754                       # Number of seconds simulated
sim_ticks                                3589754168000                       # Number of ticks simulated
final_tick                               55893926011001                       # Number of ticks from beginning of simulation (restored from checkpoints and never reset)
sim_freq                                 1000000000000                       # Frequency of simulated ticks
host_inst_rate                                 135138                       # Simulator instruction rate (inst/s)
host_op_rate                                   230145                       # Simulator op (including micro ops) rate (op/s)
host_tick_rate                              240067061                       # Simulator tick rate (ticks/s)
host_mem_usage                                1870008                       # Number of bytes of host memory used
host_seconds                                 14953.13                       # Real time elapsed on the host
sim_insts                                  2020731905                       # Number of instructions simulated
sim_ops                                    3441391023                       # Number of ops (including micro ops) simulated
system.voltage_domain.voltage                       1                       # Voltage in Volts
system.clk_domain.clock                          1000                       # Clock period in ticks
system.mem_ctrls.bytes_read::ruby.dir_cntrl0      1138688                       # Number of bytes read from this memory
system.mem_ctrls.bytes_read::total            1138688                       # Number of bytes read from this memory
system.mem_ctrls.bytes_written::ruby.dir_cntrl0       194368                       # Number of bytes written to this memory
system.mem_ctrls.bytes_written::total          194368                       # Number of bytes written to this memory
system.mem_ctrls.num_reads::ruby.dir_cntrl0        17792                       # Number of read requests responded to by this memory
system.mem_ctrls.num_reads::total               17792                       # Number of read requests responded to by this memory
system.mem_ctrls.num_writes::ruby.dir_cntrl0         3037                       # Number of write requests responded to by this memory
system.mem_ctrls.num_writes::total               3037                       # Number of write requests responded to by this memory
system.mem_ctrls.bw_read::ruby.dir_cntrl0       317205                       # Total read bandwidth from this memory (bytes/s)
system.mem_ctrls.bw_read::total                317205                       # Total read bandwidth from this memory (bytes/s)
system.mem_ctrls.bw_write::ruby.dir_cntrl0        54145                       # Write bandwidth from this memory (bytes/s)
system.mem_ctrls.bw_write::total                54145                       # Write bandwidth from this memory (bytes/s)
system.mem_ctrls.bw_total::ruby.dir_cntrl0       371350                       # Total bandwidth to/from this memory (bytes/s)
system.mem_ctrls.bw_total::total               371350                       # Total bandwidth to/from this memory (bytes/s)
system.mem_ctrls.readReqs                       17792                       # Number of read requests accepted
system.mem_ctrls.writeReqs                       3037                       # Number of write requests accepted
system.mem_ctrls.readBursts                     17792                       # Number of DRAM read bursts, including those serviced by the write queue
system.mem_ctrls.writeBursts                     3037                       # Number of DRAM write bursts, including those merged in the write queue
system.mem_ctrls.bytesReadDRAM                1138624                       # Total number of bytes read from DRAM
system.mem_ctrls.bytesReadWrQ                      64                       # Total number of bytes read from write queue
system.mem_ctrls.bytesWritten                  192448                       # Total number of bytes written to DRAM
system.mem_ctrls.bytesReadSys                 1138688                       # Total read bytes from the system interface side
system.mem_ctrls.bytesWrittenSys               194368                       # Total written bytes from the system interface side
system.mem_ctrls.servicedByWrQ                      1                       # Number of DRAM read bursts serviced by the write queue
system.mem_ctrls.mergedWrBursts                     0                       # Number of DRAM write bursts merged with an existing one
system.mem_ctrls.neitherReadNorWriteReqs            0                       # Number of requests that are neither read nor write
system.mem_ctrls.perBankRdBursts::0              1061                       # Per bank write bursts
system.mem_ctrls.perBankRdBursts::1              1272                       # Per bank write bursts
system.mem_ctrls.perBankRdBursts::2              1087                       # Per bank write bursts
system.mem_ctrls.perBankRdBursts::3              1379                       # Per bank write bursts
system.mem_ctrls.perBankRdBursts::4              1186                       # Per bank write bursts
system.mem_ctrls.perBankRdBursts::5              1167                       # Per bank write bursts
system.mem_ctrls.perBankRdBursts::6              1161                       # Per bank write bursts
system.mem_ctrls.perBankRdBursts::7              1295                       # Per bank write bursts
system.mem_ctrls.perBankRdBursts::8              1047                       # Per bank write bursts
system.mem_ctrls.perBankRdBursts::9              1146                       # Per bank write bursts
system.mem_ctrls.perBankRdBursts::10              804                       # Per bank write bursts
system.mem_ctrls.perBankRdBursts::11              842                       # Per bank write bursts
system.mem_ctrls.perBankRdBursts::12              883                       # Per bank write bursts
system.mem_ctrls.perBankRdBursts::13             1090                       # Per bank write bursts
system.mem_ctrls.perBankRdBursts::14             1260                       # Per bank write bursts
system.mem_ctrls.perBankRdBursts::15             1111                       # Per bank write bursts
system.mem_ctrls.perBankWrBursts::0               129                       # Per bank write bursts
system.mem_ctrls.perBankWrBursts::1               130                       # Per bank write bursts
system.mem_ctrls.perBankWrBursts::2               192                       # Per bank write bursts
system.mem_ctrls.perBankWrBursts::3               257                       # Per bank write bursts
system.mem_ctrls.perBankWrBursts::4               257                       # Per bank write bursts
system.mem_ctrls.perBankWrBursts::5               259                       # Per bank write bursts
system.mem_ctrls.perBankWrBursts::6               256                       # Per bank write bursts
system.mem_ctrls.perBankWrBursts::7               261                       # Per bank write bursts
system.mem_ctrls.perBankWrBursts::8               302                       # Per bank write bursts
system.mem_ctrls.perBankWrBursts::9               321                       # Per bank write bursts
system.mem_ctrls.perBankWrBursts::10              257                       # Per bank write bursts
system.mem_ctrls.perBankWrBursts::11               64                       # Per bank write bursts
system.mem_ctrls.perBankWrBursts::12                0                       # Per bank write bursts
system.mem_ctrls.perBankWrBursts::13                1                       # Per bank write bursts
system.mem_ctrls.perBankWrBursts::14              129                       # Per bank write bursts
system.mem_ctrls.perBankWrBursts::15              192                       # Per bank write bursts
system.mem_ctrls.numRdRetry                         0                       # Number of times read queue was full causing retry
system.mem_ctrls.numWrRetry                         0                       # Number of times write queue was full causing retry
system.mem_ctrls.totGap                  3589754114000                       # Total gap between requests
system.mem_ctrls.readPktSize::0                     0                       # Read request sizes (log2)
system.mem_ctrls.readPktSize::1                     0                       # Read request sizes (log2)
system.mem_ctrls.readPktSize::2                     0                       # Read request sizes (log2)
system.mem_ctrls.readPktSize::3                     0                       # Read request sizes (log2)
system.mem_ctrls.readPktSize::4                     0                       # Read request sizes (log2)
system.mem_ctrls.readPktSize::5                     0                       # Read request sizes (log2)
system.mem_ctrls.readPktSize::6                 17792                       # Read request sizes (log2)
system.mem_ctrls.writePktSize::0                    0                       # Write request sizes (log2)
system.mem_ctrls.writePktSize::1                    0                       # Write request sizes (log2)
system.mem_ctrls.writePktSize::2                    0                       # Write request sizes (log2)
system.mem_ctrls.writePktSize::3                    0                       # Write request sizes (log2)
system.mem_ctrls.writePktSize::4                    0                       # Write request sizes (log2)
system.mem_ctrls.writePktSize::5                    0                       # Write request sizes (log2)
system.mem_ctrls.writePktSize::6                 3037                       # Write request sizes (log2)
system.mem_ctrls.rdQLenPdf::0                   17681                       # What read queue length does an incoming req see
system.mem_ctrls.rdQLenPdf::1                     109                       # What read queue length does an incoming req see
system.mem_ctrls.rdQLenPdf::2                       1                       # What read queue length does an incoming req see
system.mem_ctrls.rdQLenPdf::3                       0                       # What read queue length does an incoming req see
system.mem_ctrls.rdQLenPdf::4                       0                       # What read queue length does an incoming req see
system.mem_ctrls.rdQLenPdf::5                       0                       # What read queue length does an incoming req see
system.mem_ctrls.rdQLenPdf::6                       0                       # What read queue length does an incoming req see
system.mem_ctrls.rdQLenPdf::7                       0                       # What read queue length does an incoming req see
system.mem_ctrls.rdQLenPdf::8                       0                       # What read queue length does an incoming req see
system.mem_ctrls.rdQLenPdf::9                       0                       # What read queue length does an incoming req see
system.mem_ctrls.rdQLenPdf::10                      0                       # What read queue length does an incoming req see
system.mem_ctrls.rdQLenPdf::11                      0                       # What read queue length does an incoming req see
system.mem_ctrls.rdQLenPdf::12                      0                       # What read queue length does an incoming req see
system.mem_ctrls.rdQLenPdf::13                      0                       # What read queue length does an incoming req see
system.mem_ctrls.rdQLenPdf::14                      0                       # What read queue length does an incoming req see
system.mem_ctrls.rdQLenPdf::15                      0                       # What read queue length does an incoming req see
system.mem_ctrls.rdQLenPdf::16                      0                       # What read queue length does an incoming req see
system.mem_ctrls.rdQLenPdf::17                      0                       # What read queue length does an incoming req see
system.mem_ctrls.rdQLenPdf::18                      0                       # What read queue length does an incoming req see
system.mem_ctrls.rdQLenPdf::19                      0                       # What read queue length does an incoming req see
system.mem_ctrls.rdQLenPdf::20                      0                       # What read queue length does an incoming req see
system.mem_ctrls.rdQLenPdf::21                      0                       # What read queue length does an incoming req see
system.mem_ctrls.rdQLenPdf::22                      0                       # What read queue length does an incoming req see
system.mem_ctrls.rdQLenPdf::23                      0                       # What read queue length does an incoming req see
system.mem_ctrls.rdQLenPdf::24                      0                       # What read queue length does an incoming req see
system.mem_ctrls.rdQLenPdf::25                      0                       # What read queue length does an incoming req see
system.mem_ctrls.rdQLenPdf::26                      0                       # What read queue length does an incoming req see
system.mem_ctrls.rdQLenPdf::27                      0                       # What read queue length does an incoming req see
system.mem_ctrls.rdQLenPdf::28                      0                       # What read queue length does an incoming req see
system.mem_ctrls.rdQLenPdf::29                      0                       # What read queue length does an incoming req see
system.mem_ctrls.rdQLenPdf::30                      0                       # What read queue length does an incoming req see
system.mem_ctrls.rdQLenPdf::31                      0                       # What read queue length does an incoming req see
system.mem_ctrls.wrQLenPdf::0                       1                       # What write queue length does an incoming req see
system.mem_ctrls.wrQLenPdf::1                       1                       # What write queue length does an incoming req see
system.mem_ctrls.wrQLenPdf::2                       1                       # What write queue length does an incoming req see
system.mem_ctrls.wrQLenPdf::3                       1                       # What write queue length does an incoming req see
system.mem_ctrls.wrQLenPdf::4                       1                       # What write queue length does an incoming req see
system.mem_ctrls.wrQLenPdf::5                       1                       # What write queue length does an incoming req see
system.mem_ctrls.wrQLenPdf::6                       1                       # What write queue length does an incoming req see
system.mem_ctrls.wrQLenPdf::7                       1                       # What write queue length does an incoming req see
system.mem_ctrls.wrQLenPdf::8                       1                       # What write queue length does an incoming req see
system.mem_ctrls.wrQLenPdf::9                       1                       # What write queue length does an incoming req see
system.mem_ctrls.wrQLenPdf::10                      1                       # What write queue length does an incoming req see
system.mem_ctrls.wrQLenPdf::11                      1                       # What write queue length does an incoming req see
system.mem_ctrls.wrQLenPdf::12                      1                       # What write queue length does an incoming req see
system.mem_ctrls.wrQLenPdf::13                      1                       # What write queue length does an incoming req see
system.mem_ctrls.wrQLenPdf::14                      1                       # What write queue length does an incoming req see
system.mem_ctrls.wrQLenPdf::15                    133                       # What write queue length does an incoming req see
system.mem_ctrls.wrQLenPdf::16                    160                       # What write queue length does an incoming req see
system.mem_ctrls.wrQLenPdf::17                    183                       # What write queue length does an incoming req see
system.mem_ctrls.wrQLenPdf::18                    162                       # What write queue length does an incoming req see
system.mem_ctrls.wrQLenPdf::19                    175                       # What write queue length does an incoming req see
system.mem_ctrls.wrQLenPdf::20                    232                       # What write queue length does an incoming req see
system.mem_ctrls.wrQLenPdf::21                    180                       # What write queue length does an incoming req see
system.mem_ctrls.wrQLenPdf::22                    181                       # What write queue length does an incoming req see
system.mem_ctrls.wrQLenPdf::23                    180                       # What write queue length does an incoming req see
system.mem_ctrls.wrQLenPdf::24                    158                       # What write queue length does an incoming req see
system.mem_ctrls.wrQLenPdf::25                    164                       # What write queue length does an incoming req see
system.mem_ctrls.wrQLenPdf::26                    184                       # What write queue length does an incoming req see
system.mem_ctrls.wrQLenPdf::27                    154                       # What write queue length does an incoming req see
system.mem_ctrls.wrQLenPdf::28                    153                       # What write queue length does an incoming req see
system.mem_ctrls.wrQLenPdf::29                    155                       # What write queue length does an incoming req see
system.mem_ctrls.wrQLenPdf::30                    152                       # What write queue length does an incoming req see
system.mem_ctrls.wrQLenPdf::31                    153                       # What write queue length does an incoming req see
system.mem_ctrls.wrQLenPdf::32                    147                       # What write queue length does an incoming req see
system.mem_ctrls.wrQLenPdf::33                      5                       # What write queue length does an incoming req see
system.mem_ctrls.wrQLenPdf::34                      5                       # What write queue length does an incoming req see
system.mem_ctrls.wrQLenPdf::35                      4                       # What write queue length does an incoming req see
system.mem_ctrls.wrQLenPdf::36                      2                       # What write queue length does an incoming req see
system.mem_ctrls.wrQLenPdf::37                      0                       # What write queue length does an incoming req see
system.mem_ctrls.wrQLenPdf::38                      0                       # What write queue length does an incoming req see
system.mem_ctrls.wrQLenPdf::39                      0                       # What write queue length does an incoming req see
system.mem_ctrls.wrQLenPdf::40                      0                       # What write queue length does an incoming req see
system.mem_ctrls.wrQLenPdf::41                      0                       # What write queue length does an incoming req see
system.mem_ctrls.wrQLenPdf::42                      0                       # What write queue length does an incoming req see
system.mem_ctrls.wrQLenPdf::43                      0                       # What write queue length does an incoming req see
system.mem_ctrls.wrQLenPdf::44                      0                       # What write queue length does an incoming req see
system.mem_ctrls.wrQLenPdf::45                      0                       # What write queue length does an incoming req see
system.mem_ctrls.wrQLenPdf::46                      0                       # What write queue length does an incoming req see
system.mem_ctrls.wrQLenPdf::47                      0                       # What write queue length does an incoming req see
system.mem_ctrls.wrQLenPdf::48                      0                       # What write queue length does an incoming req see
system.mem_ctrls.wrQLenPdf::49                      0                       # What write queue length does an incoming req see
system.mem_ctrls.wrQLenPdf::50                      0                       # What write queue length does an incoming req see
system.mem_ctrls.wrQLenPdf::51                      0                       # What write queue length does an incoming req see
system.mem_ctrls.wrQLenPdf::52                      0                       # What write queue length does an incoming req see
system.mem_ctrls.wrQLenPdf::53                      0                       # What write queue length does an incoming req see
system.mem_ctrls.wrQLenPdf::54                      0                       # What write queue length does an incoming req see
system.mem_ctrls.wrQLenPdf::55                      0                       # What write queue length does an incoming req see
system.mem_ctrls.wrQLenPdf::56                      0                       # What write queue length does an incoming req see
system.mem_ctrls.wrQLenPdf::57                      0                       # What write queue length does an incoming req see
system.mem_ctrls.wrQLenPdf::58                      0                       # What write queue length does an incoming req see
system.mem_ctrls.wrQLenPdf::59                      0                       # What write queue length does an incoming req see
system.mem_ctrls.wrQLenPdf::60                      0                       # What write queue length does an incoming req see
system.mem_ctrls.wrQLenPdf::61                      0                       # What write queue length does an incoming req see
system.mem_ctrls.wrQLenPdf::62                      0                       # What write queue length does an incoming req see
system.mem_ctrls.wrQLenPdf::63                      0                       # What write queue length does an incoming req see
system.mem_ctrls.bytesPerActivate::samples         4462                       # Bytes accessed per row activation
system.mem_ctrls.bytesPerActivate::mean    298.298521                       # Bytes accessed per row activation
system.mem_ctrls.bytesPerActivate::gmean   159.531409                       # Bytes accessed per row activation
system.mem_ctrls.bytesPerActivate::stdev   355.987556                       # Bytes accessed per row activation
system.mem_ctrls.bytesPerActivate::0-127         2078     46.57%     46.57% # Bytes accessed per row activation
system.mem_ctrls.bytesPerActivate::128-255          982     22.01%     68.58% # Bytes accessed per row activation
system.mem_ctrls.bytesPerActivate::256-383          285      6.39%     74.97% # Bytes accessed per row activation
system.mem_ctrls.bytesPerActivate::384-511          127      2.85%     77.81% # Bytes accessed per row activation
system.mem_ctrls.bytesPerActivate::512-639           94      2.11%     79.92% # Bytes accessed per row activation
system.mem_ctrls.bytesPerActivate::640-767           72      1.61%     81.53% # Bytes accessed per row activation
system.mem_ctrls.bytesPerActivate::768-895           64      1.43%     82.97% # Bytes accessed per row activation
system.mem_ctrls.bytesPerActivate::896-1023           55      1.23%     84.20% # Bytes accessed per row activation
system.mem_ctrls.bytesPerActivate::1024-1151          705     15.80%    100.00% # Bytes accessed per row activation
system.mem_ctrls.bytesPerActivate::total         4462                       # Bytes accessed per row activation
system.mem_ctrls.rdPerTurnAround::samples          147                       # Reads before turning the bus around for writes
system.mem_ctrls.rdPerTurnAround::mean     226.027211                       # Reads before turning the bus around for writes
system.mem_ctrls.rdPerTurnAround::stdev   1607.490237                       # Reads before turning the bus around for writes
system.mem_ctrls.rdPerTurnAround::0-1023          144     97.96%     97.96% # Reads before turning the bus around for writes
system.mem_ctrls.rdPerTurnAround::5120-6143            1      0.68%     98.64% # Reads before turning the bus around for writes
system.mem_ctrls.rdPerTurnAround::8192-9215            1      0.68%     99.32% # Reads before turning the bus around for writes
system.mem_ctrls.rdPerTurnAround::16384-17407            1      0.68%    100.00% # Reads before turning the bus around for writes
system.mem_ctrls.rdPerTurnAround::total           147                       # Reads before turning the bus around for writes
system.mem_ctrls.wrPerTurnAround::samples          147                       # Writes before turning the bus around for reads
system.mem_ctrls.wrPerTurnAround::mean      20.455782                       # Writes before turning the bus around for reads
system.mem_ctrls.wrPerTurnAround::gmean     20.334088                       # Writes before turning the bus around for reads
system.mem_ctrls.wrPerTurnAround::stdev      2.276236                       # Writes before turning the bus around for reads
system.mem_ctrls.wrPerTurnAround::16               14      9.52%      9.52% # Writes before turning the bus around for reads
system.mem_ctrls.wrPerTurnAround::18                4      2.72%     12.24% # Writes before turning the bus around for reads
system.mem_ctrls.wrPerTurnAround::19               24     16.33%     28.57% # Writes before turning the bus around for reads
system.mem_ctrls.wrPerTurnAround::20               16     10.88%     39.46% # Writes before turning the bus around for reads
system.mem_ctrls.wrPerTurnAround::21               58     39.46%     78.91% # Writes before turning the bus around for reads
system.mem_ctrls.wrPerTurnAround::22               16     10.88%     89.80% # Writes before turning the bus around for reads
system.mem_ctrls.wrPerTurnAround::23               10      6.80%     96.60% # Writes before turning the bus around for reads
system.mem_ctrls.wrPerTurnAround::24                1      0.68%     97.28% # Writes before turning the bus around for reads
system.mem_ctrls.wrPerTurnAround::25                2      1.36%     98.64% # Writes before turning the bus around for reads
system.mem_ctrls.wrPerTurnAround::27                1      0.68%     99.32% # Writes before turning the bus around for reads
system.mem_ctrls.wrPerTurnAround::34                1      0.68%    100.00% # Writes before turning the bus around for reads
system.mem_ctrls.wrPerTurnAround::total           147                       # Writes before turning the bus around for reads
system.mem_ctrls.totQLat                    127341748                       # Total ticks spent queuing
system.mem_ctrls.totMemAccLat               460922998                       # Total ticks spent from burst creation until serviced by the DRAM
system.mem_ctrls.totBusLat                   88955000                       # Total ticks spent in databus transfers
system.mem_ctrls.avgQLat                      7157.65                       # Average queueing delay per DRAM burst
system.mem_ctrls.avgBusLat                    5000.00                       # Average bus latency per DRAM burst
system.mem_ctrls.avgMemAccLat                25907.65                       # Average memory access latency per DRAM burst
system.mem_ctrls.avgRdBW                         0.32                       # Average DRAM read bandwidth in MiByte/s
system.mem_ctrls.avgWrBW                         0.05                       # Average achieved write bandwidth in MiByte/s
system.mem_ctrls.avgRdBWSys                      0.32                       # Average system read bandwidth in MiByte/s
system.mem_ctrls.avgWrBWSys                      0.05                       # Average system write bandwidth in MiByte/s
system.mem_ctrls.peakBW                      12800.00                       # Theoretical peak bandwidth in MiByte/s
system.mem_ctrls.busUtil                         0.00                       # Data bus utilization in percentage
system.mem_ctrls.busUtilRead                     0.00                       # Data bus utilization in percentage for reads
system.mem_ctrls.busUtilWrite                    0.00                       # Data bus utilization in percentage for writes
system.mem_ctrls.avgRdQLen                       1.00                       # Average read queue length when enqueuing
system.mem_ctrls.avgWrQLen                      20.33                       # Average write queue length when enqueuing
system.mem_ctrls.readRowHits                    13565                       # Number of row buffer hits during reads
system.mem_ctrls.writeRowHits                    2771                       # Number of row buffer hits during writes
system.mem_ctrls.readRowHitRate                 76.25                       # Row buffer hit rate for reads
system.mem_ctrls.writeRowHitRate                91.24                       # Row buffer hit rate for writes
system.mem_ctrls.avgGap                  172344045.03                       # Average gap between requests
system.mem_ctrls.pageHitRate                    78.43                       # Row buffer hit rate, read and write combined
system.mem_ctrls_0.actEnergy                 33558840                       # Energy for activate commands per rank (pJ)
system.mem_ctrls_0.preEnergy                 18310875                       # Energy for precharge commands per rank (pJ)
system.mem_ctrls_0.readEnergy               135353400                       # Energy for read commands per rank (pJ)
system.mem_ctrls_0.writeEnergy               11281680                       # Energy for write commands per rank (pJ)
system.mem_ctrls_0.refreshEnergy         234687726000                       # Energy for refresh commands per rank (pJ)
system.mem_ctrls_0.actBackEnergy          81149316255                       # Energy for active background per rank (pJ)
system.mem_ctrls_0.preBackEnergy         2084712368250                       # Energy for precharge background per rank (pJ)
system.mem_ctrls_0.totalEnergy           2400747915300                       # Total energy per rank (pJ)
system.mem_ctrls_0.averagePower            668.143901                       # Core power per rank (mW)
system.mem_ctrls_0.memoryStateTime::IDLE 3466812535000                       # Time in different power states
system.mem_ctrls_0.memoryStateTime::REF  119869620000                       # Time in different power states
system.mem_ctrls_0.memoryStateTime::PRE_PDN            0                       # Time in different power states
system.mem_ctrls_0.memoryStateTime::ACT    3071823000                       # Time in different power states
system.mem_ctrls_0.memoryStateTime::ACT_PDN            0                       # Time in different power states
system.mem_ctrls_1.actEnergy                 31018680                       # Energy for activate commands per rank (pJ)
system.mem_ctrls_1.preEnergy                 16924875                       # Energy for precharge commands per rank (pJ)
system.mem_ctrls_1.readEnergy               125346000                       # Energy for read commands per rank (pJ)
system.mem_ctrls_1.writeEnergy                8203680                       # Energy for write commands per rank (pJ)
system.mem_ctrls_1.refreshEnergy         234687726000                       # Energy for refresh commands per rank (pJ)
system.mem_ctrls_1.actBackEnergy          81131502330                       # Energy for active background per rank (pJ)
system.mem_ctrls_1.preBackEnergy         2084727994500                       # Energy for precharge background per rank (pJ)
system.mem_ctrls_1.totalEnergy           2400728716065                       # Total energy per rank (pJ)
system.mem_ctrls_1.averagePower            668.138558                       # Core power per rank (mW)
system.mem_ctrls_1.memoryStateTime::IDLE 3466769066500                       # Time in different power states
system.mem_ctrls_1.memoryStateTime::REF  119869620000                       # Time in different power states
system.mem_ctrls_1.memoryStateTime::PRE_PDN            0                       # Time in different power states
system.mem_ctrls_1.memoryStateTime::ACT    3110641000                       # Time in different power states
system.mem_ctrls_1.memoryStateTime::ACT_PDN            0                       # Time in different power states
system.cpu_voltage_domain.voltage                   1                       # Voltage in Volts
system.cpu_clk_domain.clock                       500                       # Clock period in ticks
system.cpu0.apic_clk_domain.clock                8000                       # Clock period in ticks
system.cpu0.numCycles                      7175160510                       # number of cpu cycles simulated
system.cpu0.numWorkItemsStarted                     0                       # number of work items this cpu started
system.cpu0.numWorkItemsCompleted                   0                       # number of work items this cpu completed
system.cpu0.kern.inst.arm                           0                       # number of arm instructions executed
system.cpu0.kern.inst.quiesce                       0                       # number of quiesce instructions executed
system.cpu0.committedInsts                    2925562                       # Number of instructions committed
system.cpu0.committedOps                      6360692                       # Number of ops (including micro ops) committed
system.cpu0.num_int_alu_accesses              6225241                       # Number of integer alu accesses
system.cpu0.num_fp_alu_accesses                     0                       # Number of float alu accesses
system.cpu0.num_func_calls                     187451                       # number of times a function call or return occured
system.cpu0.num_conditional_control_insts       424306                       # number of instructions that are conditional controls
system.cpu0.num_int_insts                     6225241                       # number of integer instructions
system.cpu0.num_fp_insts                            0                       # number of float instructions
system.cpu0.num_int_register_reads           12629987                       # number of times the integer registers were read
system.cpu0.num_int_register_writes           5154750                       # number of times the integer registers were written
system.cpu0.num_fp_register_reads                   0                       # number of times the floating registers were read
system.cpu0.num_fp_register_writes                  0                       # number of times the floating registers were written
system.cpu0.num_cc_register_reads             3520944                       # number of times the CC registers were read
system.cpu0.num_cc_register_writes            1915005                       # number of times the CC registers were written
system.cpu0.num_mem_refs                      1497518                       # number of memory refs
system.cpu0.num_load_insts                     926387                       # Number of load instructions
system.cpu0.num_store_insts                    571131                       # Number of store instructions
system.cpu0.num_idle_cycles              7162833890.381566                       # Number of idle cycles
system.cpu0.num_busy_cycles              12326619.618434                       # Number of busy cycles
system.cpu0.not_idle_fraction                0.001718                       # Percentage of non-idle cycles
system.cpu0.idle_fraction                    0.998282                       # Percentage of idle cycles
system.cpu0.Branches                           668194                       # Number of branches fetched
system.cpu0.op_class::No_OpClass               108154      1.70%      1.70% # Class of executed instruction
system.cpu0.op_class::IntAlu                  4707176     74.00%     75.70% # Class of executed instruction
system.cpu0.op_class::IntMult                   12163      0.19%     75.90% # Class of executed instruction
system.cpu0.op_class::IntDiv                    35687      0.56%     76.46% # Class of executed instruction
system.cpu0.op_class::FloatAdd                      0      0.00%     76.46% # Class of executed instruction
system.cpu0.op_class::FloatCmp                      0      0.00%     76.46% # Class of executed instruction
system.cpu0.op_class::FloatCvt                      0      0.00%     76.46% # Class of executed instruction
system.cpu0.op_class::FloatMult                     0      0.00%     76.46% # Class of executed instruction
system.cpu0.op_class::FloatDiv                      0      0.00%     76.46% # Class of executed instruction
system.cpu0.op_class::FloatSqrt                     0      0.00%     76.46% # Class of executed instruction
system.cpu0.op_class::SimdAdd                       0      0.00%     76.46% # Class of executed instruction
system.cpu0.op_class::SimdAddAcc                    0      0.00%     76.46% # Class of executed instruction
system.cpu0.op_class::SimdAlu                       0      0.00%     76.46% # Class of executed instruction
system.cpu0.op_class::SimdCmp                       0      0.00%     76.46% # Class of executed instruction
system.cpu0.op_class::SimdCvt                       0      0.00%     76.46% # Class of executed instruction
system.cpu0.op_class::SimdMisc                      0      0.00%     76.46% # Class of executed instruction
system.cpu0.op_class::SimdMult                      0      0.00%     76.46% # Class of executed instruction
system.cpu0.op_class::SimdMultAcc                   0      0.00%     76.46% # Class of executed instruction
system.cpu0.op_class::SimdShift                     0      0.00%     76.46% # Class of executed instruction
system.cpu0.op_class::SimdShiftAcc                  0      0.00%     76.46% # Class of executed instruction
system.cpu0.op_class::SimdSqrt                      0      0.00%     76.46% # Class of executed instruction
system.cpu0.op_class::SimdFloatAdd                  0      0.00%     76.46% # Class of executed instruction
system.cpu0.op_class::SimdFloatAlu                  0      0.00%     76.46% # Class of executed instruction
system.cpu0.op_class::SimdFloatCmp                  0      0.00%     76.46% # Class of executed instruction
system.cpu0.op_class::SimdFloatCvt                  0      0.00%     76.46% # Class of executed instruction
system.cpu0.op_class::SimdFloatDiv                  0      0.00%     76.46% # Class of executed instruction
system.cpu0.op_class::SimdFloatMisc                 0      0.00%     76.46% # Class of executed instruction
system.cpu0.op_class::SimdFloatMult                 0      0.00%     76.46% # Class of executed instruction
system.cpu0.op_class::SimdFloatMultAcc              0      0.00%     76.46% # Class of executed instruction
system.cpu0.op_class::SimdFloatSqrt                 0      0.00%     76.46% # Class of executed instruction
system.cpu0.op_class::MemRead                  926387     14.56%     91.02% # Class of executed instruction
system.cpu0.op_class::MemWrite                 571131      8.98%    100.00% # Class of executed instruction
system.cpu0.op_class::IprAccess                     0      0.00%    100.00% # Class of executed instruction
system.cpu0.op_class::InstPrefetch                  0      0.00%    100.00% # Class of executed instruction
system.cpu0.op_class::total                   6360698                       # Class of executed instruction
system.cpu1.apic_clk_domain.clock                8000                       # Clock period in ticks
system.cpu1.numCycles                      7182522086                       # number of cpu cycles simulated
system.cpu1.numWorkItemsStarted                     0                       # number of work items this cpu started
system.cpu1.numWorkItemsCompleted                   0                       # number of work items this cpu completed
system.cpu1.kern.inst.arm                           0                       # number of arm instructions executed
system.cpu1.kern.inst.quiesce                       0                       # number of quiesce instructions executed
system.cpu1.committedInsts                    3283803                       # Number of instructions committed
system.cpu1.committedOps                      6823142                       # Number of ops (including micro ops) committed
system.cpu1.num_int_alu_accesses              6689938                       # Number of integer alu accesses
system.cpu1.num_fp_alu_accesses                  1952                       # Number of float alu accesses
system.cpu1.num_func_calls                     175065                       # number of times a function call or return occured
system.cpu1.num_conditional_control_insts       503389                       # number of instructions that are conditional controls
system.cpu1.num_int_insts                     6689938                       # number of integer instructions
system.cpu1.num_fp_insts                         1952                       # number of float instructions
system.cpu1.num_int_register_reads           13580497                       # number of times the integer registers were read
system.cpu1.num_int_register_writes           5517131                       # number of times the integer registers were written
system.cpu1.num_fp_register_reads                3276                       # number of times the floating registers were read
system.cpu1.num_fp_register_writes               1552                       # number of times the floating registers were written
system.cpu1.num_cc_register_reads             3841961                       # number of times the CC registers were read
system.cpu1.num_cc_register_writes            2100285                       # number of times the CC registers were written
system.cpu1.num_mem_refs                      1607103                       # number of memory refs
system.cpu1.num_load_insts                     996841                       # Number of load instructions
system.cpu1.num_store_insts                    610262                       # Number of store instructions
system.cpu1.num_idle_cycles              7168541779.936171                       # Number of idle cycles
system.cpu1.num_busy_cycles              13980306.063829                       # Number of busy cycles
system.cpu1.not_idle_fraction                0.001946                       # Percentage of non-idle cycles
system.cpu1.idle_fraction                    0.998054                       # Percentage of idle cycles
system.cpu1.Branches                           737279                       # Number of branches fetched
system.cpu1.op_class::No_OpClass               106241      1.56%      1.56% # Class of executed instruction
system.cpu1.op_class::IntAlu                  5056385     74.11%     75.66% # Class of executed instruction
system.cpu1.op_class::IntMult                   15018      0.22%     75.88% # Class of executed instruction
system.cpu1.op_class::IntDiv                    37028      0.54%     76.43% # Class of executed instruction
system.cpu1.op_class::FloatAdd                   1456      0.02%     76.45% # Class of executed instruction
system.cpu1.op_class::FloatCmp                      0      0.00%     76.45% # Class of executed instruction
system.cpu1.op_class::FloatCvt                      0      0.00%     76.45% # Class of executed instruction
system.cpu1.op_class::FloatMult                     0      0.00%     76.45% # Class of executed instruction
system.cpu1.op_class::FloatDiv                      0      0.00%     76.45% # Class of executed instruction
system.cpu1.op_class::FloatSqrt                     0      0.00%     76.45% # Class of executed instruction
system.cpu1.op_class::SimdAdd                       0      0.00%     76.45% # Class of executed instruction
system.cpu1.op_class::SimdAddAcc                    0      0.00%     76.45% # Class of executed instruction
system.cpu1.op_class::SimdAlu                       0      0.00%     76.45% # Class of executed instruction
system.cpu1.op_class::SimdCmp                       0      0.00%     76.45% # Class of executed instruction
system.cpu1.op_class::SimdCvt                       0      0.00%     76.45% # Class of executed instruction
system.cpu1.op_class::SimdMisc                      0      0.00%     76.45% # Class of executed instruction
system.cpu1.op_class::SimdMult                      0      0.00%     76.45% # Class of executed instruction
system.cpu1.op_class::SimdMultAcc                   0      0.00%     76.45% # Class of executed instruction
system.cpu1.op_class::SimdShift                     0      0.00%     76.45% # Class of executed instruction
system.cpu1.op_class::SimdShiftAcc                  0      0.00%     76.45% # Class of executed instruction
system.cpu1.op_class::SimdSqrt                      0      0.00%     76.45% # Class of executed instruction
system.cpu1.op_class::SimdFloatAdd                  0      0.00%     76.45% # Class of executed instruction
system.cpu1.op_class::SimdFloatAlu                  0      0.00%     76.45% # Class of executed instruction
system.cpu1.op_class::SimdFloatCmp                  0      0.00%     76.45% # Class of executed instruction
system.cpu1.op_class::SimdFloatCvt                  0      0.00%     76.45% # Class of executed instruction
system.cpu1.op_class::SimdFloatDiv                  0      0.00%     76.45% # Class of executed instruction
system.cpu1.op_class::SimdFloatMisc                 0      0.00%     76.45% # Class of executed instruction
system.cpu1.op_class::SimdFloatMult                 0      0.00%     76.45% # Class of executed instruction
system.cpu1.op_class::SimdFloatMultAcc              0      0.00%     76.45% # Class of executed instruction
system.cpu1.op_class::SimdFloatSqrt                 0      0.00%     76.45% # Class of executed instruction
system.cpu1.op_class::MemRead                  996841     14.61%     91.06% # Class of executed instruction
system.cpu1.op_class::MemWrite                 610262      8.94%    100.00% # Class of executed instruction
system.cpu1.op_class::IprAccess                     0      0.00%    100.00% # Class of executed instruction
system.cpu1.op_class::InstPrefetch                  0      0.00%    100.00% # Class of executed instruction
system.cpu1.op_class::total                   6823231                       # Class of executed instruction
system.cpu2.apic_clk_domain.clock                8000                       # Clock period in ticks
system.cpu2.numCycles                      7180674122                       # number of cpu cycles simulated
system.cpu2.numWorkItemsStarted                     0                       # number of work items this cpu started
system.cpu2.numWorkItemsCompleted                   0                       # number of work items this cpu completed
system.cpu2.kern.inst.arm                           0                       # number of arm instructions executed
system.cpu2.kern.inst.quiesce                       0                       # number of quiesce instructions executed
system.cpu2.committedInsts                   19120847                       # Number of instructions committed
system.cpu2.committedOps                     33693884                       # Number of ops (including micro ops) committed
system.cpu2.num_int_alu_accesses             28310673                       # Number of integer alu accesses
system.cpu2.num_fp_alu_accesses               8399336                       # Number of float alu accesses
system.cpu2.num_func_calls                     575119                       # number of times a function call or return occured
system.cpu2.num_conditional_control_insts      2015227                       # number of instructions that are conditional controls
system.cpu2.num_int_insts                    28310673                       # number of integer instructions
system.cpu2.num_fp_insts                      8399336                       # number of float instructions
system.cpu2.num_int_register_reads           54575250                       # number of times the integer registers were read
system.cpu2.num_int_register_writes          21504149                       # number of times the integer registers were written
system.cpu2.num_fp_register_reads            14064329                       # number of times the floating registers were read
system.cpu2.num_fp_register_writes            7474281                       # number of times the floating registers were written
system.cpu2.num_cc_register_reads            13707198                       # number of times the CC registers were read
system.cpu2.num_cc_register_writes           10147701                       # number of times the CC registers were written
system.cpu2.num_mem_refs                      7545289                       # number of memory refs
system.cpu2.num_load_insts                    5634128                       # Number of load instructions
system.cpu2.num_store_insts                   1911161                       # Number of store instructions
system.cpu2.num_idle_cycles              7110246772.086882                       # Number of idle cycles
system.cpu2.num_busy_cycles              70427349.913119                       # Number of busy cycles
system.cpu2.not_idle_fraction                0.009808                       # Percentage of non-idle cycles
system.cpu2.idle_fraction                    0.990192                       # Percentage of idle cycles
system.cpu2.Branches                          2738343                       # Number of branches fetched
system.cpu2.op_class::No_OpClass               113832      0.34%      0.34% # Class of executed instruction
system.cpu2.op_class::IntAlu                 22165849     65.79%     66.12% # Class of executed instruction
system.cpu2.op_class::IntMult                  212675      0.63%     66.75% # Class of executed instruction
system.cpu2.op_class::IntDiv                    38076      0.11%     66.87% # Class of executed instruction
system.cpu2.op_class::FloatAdd                3618219     10.74%     77.61% # Class of executed instruction
system.cpu2.op_class::FloatCmp                      0      0.00%     77.61% # Class of executed instruction
system.cpu2.op_class::FloatCvt                      0      0.00%     77.61% # Class of executed instruction
system.cpu2.op_class::FloatMult                     0      0.00%     77.61% # Class of executed instruction
system.cpu2.op_class::FloatDiv                      0      0.00%     77.61% # Class of executed instruction
system.cpu2.op_class::FloatSqrt                     0      0.00%     77.61% # Class of executed instruction
system.cpu2.op_class::SimdAdd                       0      0.00%     77.61% # Class of executed instruction
system.cpu2.op_class::SimdAddAcc                    0      0.00%     77.61% # Class of executed instruction
system.cpu2.op_class::SimdAlu                       0      0.00%     77.61% # Class of executed instruction
system.cpu2.op_class::SimdCmp                       0      0.00%     77.61% # Class of executed instruction
system.cpu2.op_class::SimdCvt                       0      0.00%     77.61% # Class of executed instruction
system.cpu2.op_class::SimdMisc                      0      0.00%     77.61% # Class of executed instruction
system.cpu2.op_class::SimdMult                      0      0.00%     77.61% # Class of executed instruction
system.cpu2.op_class::SimdMultAcc                   0      0.00%     77.61% # Class of executed instruction
system.cpu2.op_class::SimdShift                     0      0.00%     77.61% # Class of executed instruction
system.cpu2.op_class::SimdShiftAcc                  0      0.00%     77.61% # Class of executed instruction
system.cpu2.op_class::SimdSqrt                      0      0.00%     77.61% # Class of executed instruction
system.cpu2.op_class::SimdFloatAdd                  0      0.00%     77.61% # Class of executed instruction
system.cpu2.op_class::SimdFloatAlu                  0      0.00%     77.61% # Class of executed instruction
system.cpu2.op_class::SimdFloatCmp                  0      0.00%     77.61% # Class of executed instruction
system.cpu2.op_class::SimdFloatCvt                  0      0.00%     77.61% # Class of executed instruction
system.cpu2.op_class::SimdFloatDiv                  0      0.00%     77.61% # Class of executed instruction
system.cpu2.op_class::SimdFloatMisc                 0      0.00%     77.61% # Class of executed instruction
system.cpu2.op_class::SimdFloatMult                 0      0.00%     77.61% # Class of executed instruction
system.cpu2.op_class::SimdFloatMultAcc              0      0.00%     77.61% # Class of executed instruction
system.cpu2.op_class::SimdFloatSqrt                 0      0.00%     77.61% # Class of executed instruction
system.cpu2.op_class::MemRead                 5634128     16.72%     94.33% # Class of executed instruction
system.cpu2.op_class::MemWrite                1911161      5.67%    100.00% # Class of executed instruction
system.cpu2.op_class::IprAccess                     0      0.00%    100.00% # Class of executed instruction
system.cpu2.op_class::InstPrefetch                  0      0.00%    100.00% # Class of executed instruction
system.cpu2.op_class::total                  33693940                       # Class of executed instruction
system.cpu3.apic_clk_domain.clock                8000                       # Clock period in ticks
system.cpu3.numCycles                      7181027224                       # number of cpu cycles simulated
system.cpu3.numWorkItemsStarted                     0                       # number of work items this cpu started
system.cpu3.numWorkItemsCompleted                   0                       # number of work items this cpu completed
system.cpu3.kern.inst.arm                           0                       # number of arm instructions executed
system.cpu3.kern.inst.quiesce                       0                       # number of quiesce instructions executed
system.cpu3.committedInsts                 1994004396                       # Number of instructions committed
system.cpu3.committedOps                   3391937861                       # Number of ops (including micro ops) committed
system.cpu3.num_int_alu_accesses           2756599829                       # Number of integer alu accesses
system.cpu3.num_fp_alu_accesses            1010088517                       # Number of float alu accesses
system.cpu3.num_func_calls                   49906537                       # number of times a function call or return occured
system.cpu3.num_conditional_control_insts    199771652                       # number of instructions that are conditional controls
system.cpu3.num_int_insts                  2756599829                       # number of integer instructions
system.cpu3.num_fp_insts                   1010088517                       # number of float instructions
system.cpu3.num_int_register_reads         5216359921                       # number of times the integer registers were read
system.cpu3.num_int_register_writes        2051817728                       # number of times the integer registers were written
system.cpu3.num_fp_register_reads          1701898740                       # number of times the floating registers were read
system.cpu3.num_fp_register_writes          899765659                       # number of times the floating registers were written
system.cpu3.num_cc_register_reads          1288181585                       # number of times the CC registers were read
system.cpu3.num_cc_register_writes         1039068504                       # number of times the CC registers were written
system.cpu3.num_mem_refs                    738015251                       # number of memory refs
system.cpu3.num_load_insts                  571672499                       # Number of load instructions
system.cpu3.num_store_insts                 166342752                       # Number of store instructions
system.cpu3.num_idle_cycles              63730628.922071                       # Number of idle cycles
system.cpu3.num_busy_cycles              7117296595.077929                       # Number of busy cycles
system.cpu3.not_idle_fraction                0.991125                       # Percentage of non-idle cycles
system.cpu3.idle_fraction                    0.008875                       # Percentage of idle cycles
system.cpu3.Branches                        261082240                       # Number of branches fetched
system.cpu3.op_class::No_OpClass              1505656      0.04%      0.04% # Class of executed instruction
system.cpu3.op_class::IntAlu               2188547339     64.52%     64.57% # Class of executed instruction
system.cpu3.op_class::IntMult                24039665      0.71%     65.28% # Class of executed instruction
system.cpu3.op_class::IntDiv                   210738      0.01%     65.28% # Class of executed instruction
system.cpu3.op_class::FloatAdd              439619365     12.96%     78.24% # Class of executed instruction
system.cpu3.op_class::FloatCmp                      0      0.00%     78.24% # Class of executed instruction
system.cpu3.op_class::FloatCvt                      0      0.00%     78.24% # Class of executed instruction
system.cpu3.op_class::FloatMult                     0      0.00%     78.24% # Class of executed instruction
system.cpu3.op_class::FloatDiv                      0      0.00%     78.24% # Class of executed instruction
system.cpu3.op_class::FloatSqrt                     0      0.00%     78.24% # Class of executed instruction
system.cpu3.op_class::SimdAdd                       0      0.00%     78.24% # Class of executed instruction
system.cpu3.op_class::SimdAddAcc                    0      0.00%     78.24% # Class of executed instruction
system.cpu3.op_class::SimdAlu                       0      0.00%     78.24% # Class of executed instruction
system.cpu3.op_class::SimdCmp                       0      0.00%     78.24% # Class of executed instruction
system.cpu3.op_class::SimdCvt                       0      0.00%     78.24% # Class of executed instruction
system.cpu3.op_class::SimdMisc                      0      0.00%     78.24% # Class of executed instruction
system.cpu3.op_class::SimdMult                      0      0.00%     78.24% # Class of executed instruction
system.cpu3.op_class::SimdMultAcc                   0      0.00%     78.24% # Class of executed instruction
system.cpu3.op_class::SimdShift                     0      0.00%     78.24% # Class of executed instruction
system.cpu3.op_class::SimdShiftAcc                  0      0.00%     78.24% # Class of executed instruction
system.cpu3.op_class::SimdSqrt                      0      0.00%     78.24% # Class of executed instruction
system.cpu3.op_class::SimdFloatAdd                  0      0.00%     78.24% # Class of executed instruction
system.cpu3.op_class::SimdFloatAlu                  0      0.00%     78.24% # Class of executed instruction
system.cpu3.op_class::SimdFloatCmp                  0      0.00%     78.24% # Class of executed instruction
system.cpu3.op_class::SimdFloatCvt                  0      0.00%     78.24% # Class of executed instruction
system.cpu3.op_class::SimdFloatDiv                  0      0.00%     78.24% # Class of executed instruction
system.cpu3.op_class::SimdFloatMisc                 0      0.00%     78.24% # Class of executed instruction
system.cpu3.op_class::SimdFloatMult                 0      0.00%     78.24% # Class of executed instruction
system.cpu3.op_class::SimdFloatMultAcc              0      0.00%     78.24% # Class of executed instruction
system.cpu3.op_class::SimdFloatSqrt                 0      0.00%     78.24% # Class of executed instruction
system.cpu3.op_class::MemRead               571672499     16.85%     95.10% # Class of executed instruction
system.cpu3.op_class::MemWrite              166342752      4.90%    100.00% # Class of executed instruction
system.cpu3.op_class::IprAccess                     0      0.00%    100.00% # Class of executed instruction
system.cpu3.op_class::InstPrefetch                  0      0.00%    100.00% # Class of executed instruction
system.cpu3.op_class::total                3391938014                       # Class of executed instruction
system.iobus.trans_dist::ReadReq                  117                       # Transaction distribution
system.iobus.trans_dist::ReadResp                 117                       # Transaction distribution
system.iobus.trans_dist::WriteReq                3724                       # Transaction distribution
system.iobus.trans_dist::WriteResp               3724                       # Transaction distribution
system.iobus.trans_dist::MessageReq                19                       # Transaction distribution
system.iobus.trans_dist::MessageResp               19                       # Transaction distribution
system.iobus.pkt_count_system.pc.south_bridge.io_apic.int_master::system.ruby.l1_cntrl0.sequencer.pio-slave-port            4                       # Packet count per connected master and slave (bytes)
system.iobus.pkt_count_system.pc.south_bridge.io_apic.int_master::system.ruby.l1_cntrl1.sequencer.pio-slave-port            6                       # Packet count per connected master and slave (bytes)
system.iobus.pkt_count_system.pc.south_bridge.io_apic.int_master::system.ruby.l1_cntrl2.sequencer.pio-slave-port            4                       # Packet count per connected master and slave (bytes)
system.iobus.pkt_count_system.pc.south_bridge.io_apic.int_master::system.ruby.l1_cntrl3.sequencer.pio-slave-port            4                       # Packet count per connected master and slave (bytes)
system.iobus.pkt_count_system.pc.south_bridge.io_apic.int_master::total           18                       # Packet count per connected master and slave (bytes)
system.iobus.pkt_count_system.ruby.l1_cntrl0.sequencer.mem-master-port::system.pc.south_bridge.ide.pio           46                       # Packet count per connected master and slave (bytes)
system.iobus.pkt_count_system.ruby.l1_cntrl0.sequencer.mem-master-port::system.pc.south_bridge.io_apic.pio            6                       # Packet count per connected master and slave (bytes)
system.iobus.pkt_count_system.ruby.l1_cntrl0.sequencer.mem-master-port::system.pc.com_1.pio           22                       # Packet count per connected master and slave (bytes)
system.iobus.pkt_count_system.ruby.l1_cntrl0.sequencer.mem-master-port::system.ruby.l1_cntrl0.sequencer.pio-slave-port         1814                       # Packet count per connected master and slave (bytes)
system.iobus.pkt_count_system.ruby.l1_cntrl0.sequencer.mem-master-port::system.ruby.l1_cntrl1.sequencer.pio-slave-port            2                       # Packet count per connected master and slave (bytes)
system.iobus.pkt_count_system.ruby.l1_cntrl0.sequencer.mem-master-port::system.ruby.l1_cntrl2.sequencer.pio-slave-port            2                       # Packet count per connected master and slave (bytes)
system.iobus.pkt_count_system.ruby.l1_cntrl0.sequencer.mem-master-port::total         1892                       # Packet count per connected master and slave (bytes)
system.iobus.pkt_count_system.ruby.l1_cntrl1.sequencer.mem-master-port::system.pc.south_bridge.ide.pio           46                       # Packet count per connected master and slave (bytes)
system.iobus.pkt_count_system.ruby.l1_cntrl1.sequencer.mem-master-port::system.pc.south_bridge.io_apic.pio           14                       # Packet count per connected master and slave (bytes)
system.iobus.pkt_count_system.ruby.l1_cntrl1.sequencer.mem-master-port::system.pc.com_1.pio          162                       # Packet count per connected master and slave (bytes)
system.iobus.pkt_count_system.ruby.l1_cntrl1.sequencer.mem-master-port::system.ruby.l1_cntrl0.sequencer.pio-slave-port            2                       # Packet count per connected master and slave (bytes)
system.iobus.pkt_count_system.ruby.l1_cntrl1.sequencer.mem-master-port::system.ruby.l1_cntrl1.sequencer.pio-slave-port         1820                       # Packet count per connected master and slave (bytes)
system.iobus.pkt_count_system.ruby.l1_cntrl1.sequencer.mem-master-port::system.ruby.l1_cntrl2.sequencer.pio-slave-port            2                       # Packet count per connected master and slave (bytes)
system.iobus.pkt_count_system.ruby.l1_cntrl1.sequencer.mem-master-port::total         2046                       # Packet count per connected master and slave (bytes)
system.iobus.pkt_count_system.ruby.l1_cntrl2.sequencer.mem-master-port::system.pc.south_bridge.ide.pio           80                       # Packet count per connected master and slave (bytes)
system.iobus.pkt_count_system.ruby.l1_cntrl2.sequencer.mem-master-port::system.pc.south_bridge.io_apic.pio            8                       # Packet count per connected master and slave (bytes)
system.iobus.pkt_count_system.ruby.l1_cntrl2.sequencer.mem-master-port::system.ruby.l1_cntrl1.sequencer.pio-slave-port            2                       # Packet count per connected master and slave (bytes)
system.iobus.pkt_count_system.ruby.l1_cntrl2.sequencer.mem-master-port::system.ruby.l1_cntrl2.sequencer.pio-slave-port         1820                       # Packet count per connected master and slave (bytes)
system.iobus.pkt_count_system.ruby.l1_cntrl2.sequencer.mem-master-port::system.ruby.l1_cntrl3.sequencer.pio-slave-port            2                       # Packet count per connected master and slave (bytes)
system.iobus.pkt_count_system.ruby.l1_cntrl2.sequencer.mem-master-port::total         1912                       # Packet count per connected master and slave (bytes)
system.iobus.pkt_count_system.ruby.l1_cntrl3.sequencer.mem-master-port::system.pc.south_bridge.ide.pio           12                       # Packet count per connected master and slave (bytes)
system.iobus.pkt_count_system.ruby.l1_cntrl3.sequencer.mem-master-port::system.pc.south_bridge.io_apic.pio            8                       # Packet count per connected master and slave (bytes)
system.iobus.pkt_count_system.ruby.l1_cntrl3.sequencer.mem-master-port::system.ruby.l1_cntrl0.sequencer.pio-slave-port            2                       # Packet count per connected master and slave (bytes)
system.iobus.pkt_count_system.ruby.l1_cntrl3.sequencer.mem-master-port::system.ruby.l1_cntrl1.sequencer.pio-slave-port            2                       # Packet count per connected master and slave (bytes)
system.iobus.pkt_count_system.ruby.l1_cntrl3.sequencer.mem-master-port::system.ruby.l1_cntrl2.sequencer.pio-slave-port            4                       # Packet count per connected master and slave (bytes)
system.iobus.pkt_count_system.ruby.l1_cntrl3.sequencer.mem-master-port::system.ruby.l1_cntrl3.sequencer.pio-slave-port         1824                       # Packet count per connected master and slave (bytes)
system.iobus.pkt_count_system.ruby.l1_cntrl3.sequencer.mem-master-port::total         1852                       # Packet count per connected master and slave (bytes)
system.iobus.pkt_count::total                    7720                       # Packet count per connected master and slave (bytes)
system.iobus.pkt_size_system.pc.south_bridge.io_apic.int_master::system.ruby.l1_cntrl0.sequencer.pio-slave-port            8                       # Cumulative packet size per connected master and slave (bytes)
system.iobus.pkt_size_system.pc.south_bridge.io_apic.int_master::system.ruby.l1_cntrl1.sequencer.pio-slave-port           12                       # Cumulative packet size per connected master and slave (bytes)
system.iobus.pkt_size_system.pc.south_bridge.io_apic.int_master::system.ruby.l1_cntrl2.sequencer.pio-slave-port            8                       # Cumulative packet size per connected master and slave (bytes)
system.iobus.pkt_size_system.pc.south_bridge.io_apic.int_master::system.ruby.l1_cntrl3.sequencer.pio-slave-port            8                       # Cumulative packet size per connected master and slave (bytes)
system.iobus.pkt_size_system.pc.south_bridge.io_apic.int_master::total           36                       # Cumulative packet size per connected master and slave (bytes)
system.iobus.pkt_size_system.ruby.l1_cntrl0.sequencer.mem-master-port::system.pc.south_bridge.ide.pio           26                       # Cumulative packet size per connected master and slave (bytes)
system.iobus.pkt_size_system.ruby.l1_cntrl0.sequencer.mem-master-port::system.pc.south_bridge.io_apic.pio           12                       # Cumulative packet size per connected master and slave (bytes)
system.iobus.pkt_size_system.ruby.l1_cntrl0.sequencer.mem-master-port::system.pc.com_1.pio           11                       # Cumulative packet size per connected master and slave (bytes)
system.iobus.pkt_size_system.ruby.l1_cntrl0.sequencer.mem-master-port::system.ruby.l1_cntrl0.sequencer.pio-slave-port         3628                       # Cumulative packet size per connected master and slave (bytes)
system.iobus.pkt_size_system.ruby.l1_cntrl0.sequencer.mem-master-port::system.ruby.l1_cntrl1.sequencer.pio-slave-port            4                       # Cumulative packet size per connected master and slave (bytes)
system.iobus.pkt_size_system.ruby.l1_cntrl0.sequencer.mem-master-port::system.ruby.l1_cntrl2.sequencer.pio-slave-port            4                       # Cumulative packet size per connected master and slave (bytes)
system.iobus.pkt_size_system.ruby.l1_cntrl0.sequencer.mem-master-port::total         3685                       # Cumulative packet size per connected master and slave (bytes)
system.iobus.pkt_size_system.ruby.l1_cntrl1.sequencer.mem-master-port::system.pc.south_bridge.ide.pio           26                       # Cumulative packet size per connected master and slave (bytes)
system.iobus.pkt_size_system.ruby.l1_cntrl1.sequencer.mem-master-port::system.pc.south_bridge.io_apic.pio           28                       # Cumulative packet size per connected master and slave (bytes)
system.iobus.pkt_size_system.ruby.l1_cntrl1.sequencer.mem-master-port::system.pc.com_1.pio           81                       # Cumulative packet size per connected master and slave (bytes)
system.iobus.pkt_size_system.ruby.l1_cntrl1.sequencer.mem-master-port::system.ruby.l1_cntrl0.sequencer.pio-slave-port            4                       # Cumulative packet size per connected master and slave (bytes)
system.iobus.pkt_size_system.ruby.l1_cntrl1.sequencer.mem-master-port::system.ruby.l1_cntrl1.sequencer.pio-slave-port         3640                       # Cumulative packet size per connected master and slave (bytes)
system.iobus.pkt_size_system.ruby.l1_cntrl1.sequencer.mem-master-port::system.ruby.l1_cntrl2.sequencer.pio-slave-port            4                       # Cumulative packet size per connected master and slave (bytes)
system.iobus.pkt_size_system.ruby.l1_cntrl1.sequencer.mem-master-port::total         3783                       # Cumulative packet size per connected master and slave (bytes)
system.iobus.pkt_size_system.ruby.l1_cntrl2.sequencer.mem-master-port::system.pc.south_bridge.ide.pio           46                       # Cumulative packet size per connected master and slave (bytes)
system.iobus.pkt_size_system.ruby.l1_cntrl2.sequencer.mem-master-port::system.pc.south_bridge.io_apic.pio           16                       # Cumulative packet size per connected master and slave (bytes)
system.iobus.pkt_size_system.ruby.l1_cntrl2.sequencer.mem-master-port::system.ruby.l1_cntrl1.sequencer.pio-slave-port            4                       # Cumulative packet size per connected master and slave (bytes)
system.iobus.pkt_size_system.ruby.l1_cntrl2.sequencer.mem-master-port::system.ruby.l1_cntrl2.sequencer.pio-slave-port         3640                       # Cumulative packet size per connected master and slave (bytes)
system.iobus.pkt_size_system.ruby.l1_cntrl2.sequencer.mem-master-port::system.ruby.l1_cntrl3.sequencer.pio-slave-port            4                       # Cumulative packet size per connected master and slave (bytes)
system.iobus.pkt_size_system.ruby.l1_cntrl2.sequencer.mem-master-port::total         3710                       # Cumulative packet size per connected master and slave (bytes)
system.iobus.pkt_size_system.ruby.l1_cntrl3.sequencer.mem-master-port::system.pc.south_bridge.ide.pio            6                       # Cumulative packet size per connected master and slave (bytes)
system.iobus.pkt_size_system.ruby.l1_cntrl3.sequencer.mem-master-port::system.pc.south_bridge.io_apic.pio           16                       # Cumulative packet size per connected master and slave (bytes)
system.iobus.pkt_size_system.ruby.l1_cntrl3.sequencer.mem-master-port::system.ruby.l1_cntrl0.sequencer.pio-slave-port            4                       # Cumulative packet size per connected master and slave (bytes)
system.iobus.pkt_size_system.ruby.l1_cntrl3.sequencer.mem-master-port::system.ruby.l1_cntrl1.sequencer.pio-slave-port            4                       # Cumulative packet size per connected master and slave (bytes)
system.iobus.pkt_size_system.ruby.l1_cntrl3.sequencer.mem-master-port::system.ruby.l1_cntrl2.sequencer.pio-slave-port            8                       # Cumulative packet size per connected master and slave (bytes)
system.iobus.pkt_size_system.ruby.l1_cntrl3.sequencer.mem-master-port::system.ruby.l1_cntrl3.sequencer.pio-slave-port         3648                       # Cumulative packet size per connected master and slave (bytes)
system.iobus.pkt_size_system.ruby.l1_cntrl3.sequencer.mem-master-port::total         3686                       # Cumulative packet size per connected master and slave (bytes)
system.iobus.pkt_size::total                    14900                       # Cumulative packet size per connected master and slave (bytes)
system.iobus.reqLayer2.occupancy               163500                       # Layer occupancy (ticks)
system.iobus.reqLayer2.utilization                0.0                       # Layer utilization (%)
system.iobus.reqLayer8.occupancy                33496                       # Layer occupancy (ticks)
system.iobus.reqLayer8.utilization                0.0                       # Layer utilization (%)
system.iobus.reqLayer12.occupancy              119000                       # Layer occupancy (ticks)
system.iobus.reqLayer12.utilization               0.0                       # Layer utilization (%)
system.iobus.reqLayer17.occupancy             2272998                       # Layer occupancy (ticks)
system.iobus.reqLayer17.utilization               0.0                       # Layer utilization (%)
system.iobus.reqLayer18.occupancy             2283498                       # Layer occupancy (ticks)
system.iobus.reqLayer18.utilization               0.0                       # Layer utilization (%)
system.iobus.reqLayer19.occupancy             2283994                       # Layer occupancy (ticks)
system.iobus.reqLayer19.utilization               0.0                       # Layer utilization (%)
system.iobus.reqLayer20.occupancy             1940481                       # Layer occupancy (ticks)
system.iobus.reqLayer20.utilization               0.0                       # Layer utilization (%)
system.iobus.respLayer0.occupancy               13996                       # Layer occupancy (ticks)
system.iobus.respLayer0.utilization               0.0                       # Layer utilization (%)
system.iobus.respLayer2.occupancy             1418500                       # Layer occupancy (ticks)
system.iobus.respLayer2.utilization               0.0                       # Layer utilization (%)
system.iobus.respLayer4.occupancy             1550000                       # Layer occupancy (ticks)
system.iobus.respLayer4.utilization               0.0                       # Layer utilization (%)
system.iobus.respLayer6.occupancy             1427000                       # Layer occupancy (ticks)
system.iobus.respLayer6.utilization               0.0                       # Layer utilization (%)
system.iobus.respLayer8.occupancy             1392000                       # Layer occupancy (ticks)
system.iobus.respLayer8.utilization               0.0                       # Layer utilization (%)
system.pc.south_bridge.ide.disks.dma_read_full_pages            1                       # Number of full page size DMA reads (not PRD).
system.pc.south_bridge.ide.disks.dma_read_bytes         4096                       # Number of bytes transfered via DMA reads (not PRD).
system.pc.south_bridge.ide.disks.dma_read_txs            1                       # Number of DMA read transactions (not PRD).
system.pc.south_bridge.ide.disks.dma_write_full_pages           45                       # Number of full page size DMA writes.
system.pc.south_bridge.ide.disks.dma_write_bytes       184320                       # Number of bytes transfered via DMA writes.
system.pc.south_bridge.ide.disks.dma_write_txs           45                       # Number of DMA write transactions.
system.ruby.clk_domain.clock                      500                       # Clock period in ticks
system.ruby.outstanding_req_hist_seqr::bucket_size            1                      
system.ruby.outstanding_req_hist_seqr::max_bucket            9                      
system.ruby.outstanding_req_hist_seqr::samples   3588701813                      
system.ruby.outstanding_req_hist_seqr::mean     1.000000                      
system.ruby.outstanding_req_hist_seqr::gmean     1.000000                      
system.ruby.outstanding_req_hist_seqr::stdev     0.000246                      
system.ruby.outstanding_req_hist_seqr    |           0      0.00%      0.00% |  3588701595    100.00%    100.00% |         218      0.00%    100.00% |           0      0.00%    100.00% |           0      0.00%    100.00% |           0      0.00%    100.00% |           0      0.00%    100.00% |           0      0.00%    100.00% |           0      0.00%    100.00% |           0      0.00%    100.00%
system.ruby.outstanding_req_hist_seqr::total   3588701813                      
system.ruby.latency_hist_seqr::bucket_size          128                      
system.ruby.latency_hist_seqr::max_bucket         1279                      
system.ruby.latency_hist_seqr::samples     3588701813                      
system.ruby.latency_hist_seqr::mean          1.009556                      
system.ruby.latency_hist_seqr::gmean         1.002072                      
system.ruby.latency_hist_seqr::stdev         0.428751                      
system.ruby.latency_hist_seqr            |  3588700331    100.00%    100.00% |        1245      0.00%    100.00% |          20      0.00%    100.00% |          38      0.00%    100.00% |         146      0.00%    100.00% |          33      0.00%    100.00% |           0      0.00%    100.00% |           0      0.00%    100.00% |           0      0.00%    100.00% |           0      0.00%    100.00%
system.ruby.latency_hist_seqr::total       3588701813                      
system.ruby.hit_latency_hist_seqr::bucket_size            2                      
system.ruby.hit_latency_hist_seqr::max_bucket           19                      
system.ruby.hit_latency_hist_seqr::samples   3588591054                      
system.ruby.hit_latency_hist_seqr::mean      1.008156                      
system.ruby.hit_latency_hist_seqr::gmean     1.001958                      
system.ruby.hit_latency_hist_seqr::stdev     0.285462                      
[...]
system.ruby.L1Cache_Controller.O.L1_to_L2::total        63453                      
system.ruby.L1Cache_Controller.O.Trigger_L2_to_L1D |        1127     10.79%     10.79% |         426      4.08%     14.87% |        7385     70.70%     85.56% |        1508     14.44%    100.00%
system.ruby.L1Cache_Controller.O.Trigger_L2_to_L1D::total        10446                      
system.ruby.L1Cache_Controller.O.Trigger_L2_to_L1I |        8903     17.21%     17.21% |       16011     30.95%     48.15% |       24517     47.39%     95.54% |        2307      4.46%    100.00%
system.ruby.L1Cache_Controller.O.Trigger_L2_to_L1I::total        51738                      
system.ruby.L1Cache_Controller.O.Other_GETX |        7014     33.00%     33.00% |        8806     41.43%     74.43% |        4189     19.71%     94.14% |        1245      5.86%    100.00%
system.ruby.L1Cache_Controller.O.Other_GETX::total        21254                      
system.ruby.L1Cache_Controller.O.Other_GETS |        8506     27.86%     27.86% |       10021     32.82%     60.68% |       10114     33.13%     93.81% |        1890      6.19%    100.00%
system.ruby.L1Cache_Controller.O.Other_GETS::total        30531                      
system.ruby.L1Cache_Controller.M.Load    |      116735      0.22%      0.22% |      153847      0.28%      0.50% |     1592073      2.94%      3.44% |    52356910     96.56%    100.00%
system.ruby.L1Cache_Controller.M.Load::total     54219565                      
system.ruby.L1Cache_Controller.M.Ifetch  |      429709      0.63%      0.63% |      232674      0.34%      0.97% |    21263761     31.09%     32.06% |    46466067     67.94%    100.00%
system.ruby.L1Cache_Controller.M.Ifetch::total     68392211                      
system.ruby.L1Cache_Controller.M.Store   |        2416     15.98%     15.98% |        2895     19.14%     35.12% |        5933     39.23%     74.36% |        3878     25.64%    100.00%
system.ruby.L1Cache_Controller.M.Store::total        15122                      
system.ruby.L1Cache_Controller.M.L2_Replacement |          19      3.12%      3.12% |          93     15.27%     18.39% |         338     55.50%     73.89% |         159     26.11%    100.00%
system.ruby.L1Cache_Controller.M.L2_Replacement::total          609                      
system.ruby.L1Cache_Controller.M.L1_to_L2 |       10289     11.62%     11.62% |        7343      8.29%     19.91% |       23050     26.03%     45.94% |       47882     54.06%    100.00%
system.ruby.L1Cache_Controller.M.L1_to_L2::total        88564                      
system.ruby.L1Cache_Controller.M.Trigger_L2_to_L1D |        1090      2.03%      2.03% |        1761      3.28%      5.31% |       11990     22.32%     27.63% |       38875     72.37%    100.00%
system.ruby.L1Cache_Controller.M.Trigger_L2_to_L1D::total        53716                      
system.ruby.L1Cache_Controller.M.Trigger_L2_to_L1I |        6308     32.50%     32.50% |        1852      9.54%     42.05% |        7157     36.88%     78.93% |        4090     21.07%    100.00%
system.ruby.L1Cache_Controller.M.Trigger_L2_to_L1I::total        19407                      
system.ruby.L1Cache_Controller.M.Other_GETX |         281     12.07%     12.07% |         333     14.30%     26.36% |         990     42.51%     68.87% |         725     31.13%    100.00%
system.ruby.L1Cache_Controller.M.Other_GETX::total         2329                      
system.ruby.L1Cache_Controller.M.Other_GETS |        8769     30.18%     30.18% |        9577     32.96%     63.14% |        7616     26.21%     89.36% |        3092     10.64%    100.00%
system.ruby.L1Cache_Controller.M.Other_GETS::total        29054                      
system.ruby.L1Cache_Controller.M.Merged_GETS |           4      4.94%      4.94% |           4      4.94%      9.88% |          71     87.65%     97.53% |           2      2.47%    100.00%
system.ruby.L1Cache_Controller.M.Merged_GETS::total           81                      
system.ruby.L1Cache_Controller.MM.Load   |      799026      0.22%      0.22% |      855198      0.24%      0.45% |     4027803      1.11%      1.56% |   357909203     98.44%    100.00%
system.ruby.L1Cache_Controller.MM.Load::total    363591230                      
system.ruby.L1Cache_Controller.MM.Store  |      854571      0.49%      0.49% |      896667      0.51%      0.99% |     2536079      1.44%      2.43% |   171818966     97.57%    100.00%
system.ruby.L1Cache_Controller.MM.Store::total    176106283                      
system.ruby.L1Cache_Controller.MM.L2_Replacement |          93      4.09%      4.09% |         188      8.27%     12.36% |        1055     46.41%     58.78% |         937     41.22%    100.00%
system.ruby.L1Cache_Controller.MM.L2_Replacement::total         2273                      
system.ruby.L1Cache_Controller.MM.L1_to_L2 |       11946      1.19%      1.19% |       15127      1.50%      2.69% |       32002      3.18%      5.86% |      948356     94.14%    100.00%
system.ruby.L1Cache_Controller.MM.L1_to_L2::total      1007431                      
system.ruby.L1Cache_Controller.MM.Trigger_L2_to_L1D |        6709      0.70%      0.70% |        6225      0.65%      1.35% |       19316      2.01%      3.36% |      928973     96.64%    100.00%
system.ruby.L1Cache_Controller.MM.Trigger_L2_to_L1D::total       961223                      
system.ruby.L1Cache_Controller.MM.Other_GETX |        1549     10.65%     10.65% |        3984     27.38%     38.03% |        3415     23.47%     61.50% |        5601     38.50%    100.00%
system.ruby.L1Cache_Controller.MM.Other_GETX::total        14549                      
system.ruby.L1Cache_Controller.MM.Other_GETS |        9835     29.81%     29.81% |        6124     18.56%     48.37% |        7362     22.31%     70.68% |        9674     29.32%    100.00%
system.ruby.L1Cache_Controller.MM.Other_GETS::total        32995                      
system.ruby.L1Cache_Controller.MM.Merged_GETS |         216     28.38%     28.38% |         202     26.54%     54.93% |         230     30.22%     85.15% |         113     14.85%    100.00%
system.ruby.L1Cache_Controller.MM.Merged_GETS::total          761                      
system.ruby.L1Cache_Controller.SR.Load   |        3588      0.38%      0.38% |        3113      0.33%      0.71% |        2218      0.24%      0.95% |      929792     99.05%    100.00%
system.ruby.L1Cache_Controller.SR.Load::total       938711                      
system.ruby.L1Cache_Controller.SR.Ifetch |       39733      3.98%      3.98% |       28362      2.84%      6.81% |       31257      3.13%      9.94% |      900069     90.06%    100.00%
system.ruby.L1Cache_Controller.SR.Ifetch::total       999421                      
system.ruby.L1Cache_Controller.SR.Store  |          36      9.21%      9.21% |         111     28.39%     37.60% |         173     44.25%     81.84% |          71     18.16%    100.00%
system.ruby.L1Cache_Controller.SR.Store::total          391                      
system.ruby.L1Cache_Controller.OR.Load   |        1123     10.80%     10.80% |         417      4.01%     14.81% |        7377     70.97%     85.78% |        1478     14.22%    100.00%
system.ruby.L1Cache_Controller.OR.Load::total        10395                      
system.ruby.L1Cache_Controller.OR.Ifetch |        8903     17.21%     17.21% |       16011     30.95%     48.15% |       24517     47.39%     95.54% |        2307      4.46%    100.00%
system.ruby.L1Cache_Controller.OR.Ifetch::total        51738                      
system.ruby.L1Cache_Controller.OR.Store  |           4      7.84%      7.84% |           9     17.65%     25.49% |           8     15.69%     41.18% |          30     58.82%    100.00%
system.ruby.L1Cache_Controller.OR.Store::total           51                      
system.ruby.L1Cache_Controller.MR.Load   |         657      1.29%      1.29% |         866      1.70%      2.99% |       11286     22.17%     25.16% |       38104     74.84%    100.00%
system.ruby.L1Cache_Controller.MR.Load::total        50913                      
system.ruby.L1Cache_Controller.MR.Ifetch |        6308     32.50%     32.50% |        1852      9.54%     42.05% |        7157     36.88%     78.93% |        4090     21.07%    100.00%
system.ruby.L1Cache_Controller.MR.Ifetch::total        19407                      
system.ruby.L1Cache_Controller.MR.Store  |         433     15.45%     15.45% |         895     31.93%     47.38% |         704     25.12%     72.49% |         771     27.51%    100.00%
system.ruby.L1Cache_Controller.MR.Store::total         2803                      
system.ruby.L1Cache_Controller.MMR.Load  |        2294      0.89%      0.89% |        3586      1.40%      2.29% |        7564      2.95%      5.24% |      242949     94.76%    100.00%
system.ruby.L1Cache_Controller.MMR.Load::total       256393                      
system.ruby.L1Cache_Controller.MMR.Store |        4415      0.63%      0.63% |        2639      0.37%      1.00% |       11752      1.67%      2.67% |      686024     97.33%    100.00%
system.ruby.L1Cache_Controller.MMR.Store::total       704830                      
system.ruby.L1Cache_Controller.IM.Ack    |        8683      9.53%      9.53% |       19832     21.76%     31.28% |       13787     15.13%     46.41% |       48848     53.59%    100.00%
system.ruby.L1Cache_Controller.IM.Ack::total        91150                      
system.ruby.L1Cache_Controller.IM.Data   |        3377     42.80%     42.80% |        1641     20.80%     63.59% |        1971     24.98%     88.57% |         902     11.43%    100.00%
system.ruby.L1Cache_Controller.IM.Data::total         7891                      
system.ruby.L1Cache_Controller.IM.Exclusive_Data |        4525     11.64%     11.64% |        7755     19.95%     31.59% |        8092     20.82%     52.41% |       18501     47.59%    100.00%
system.ruby.L1Cache_Controller.IM.Exclusive_Data::total        38873                      
system.ruby.L1Cache_Controller.SM.Ack    |        2309     26.86%     26.86% |        1833     21.32%     48.18% |        2642     30.73%     78.91% |        1813     21.09%    100.00%
system.ruby.L1Cache_Controller.SM.Ack::total         8597                      
system.ruby.L1Cache_Controller.SM.Data   |        4826     36.29%     36.29% |        2363     17.77%     54.06% |        3461     26.03%     80.09% |        2647     19.91%    100.00%
system.ruby.L1Cache_Controller.SM.Data::total        13297                      
system.ruby.L1Cache_Controller.OM.Ack    |          81      5.71%      5.71% |         141      9.94%     15.64% |         600     42.28%     57.93% |         597     42.07%    100.00%
system.ruby.L1Cache_Controller.OM.Ack::total         1419                      
system.ruby.L1Cache_Controller.OM.All_acks_no_sharers |          27      5.71%      5.71% |          47      9.94%     15.64% |         200     42.28%     57.93% |         199     42.07%    100.00%
system.ruby.L1Cache_Controller.OM.All_acks_no_sharers::total          473                      
system.ruby.L1Cache_Controller.ISM.Ack   |       12153     42.57%     42.57% |        4681     16.40%     58.97% |        7059     24.73%     83.69% |        4656     16.31%    100.00%
system.ruby.L1Cache_Controller.ISM.Ack::total        28549                      
system.ruby.L1Cache_Controller.ISM.All_acks_no_sharers |        8203     38.72%     38.72% |        4004     18.90%     57.61% |        5432     25.64%     83.25% |        3549     16.75%    100.00%
system.ruby.L1Cache_Controller.ISM.All_acks_no_sharers::total        21188                      
system.ruby.L1Cache_Controller.M_W.Load  |          21      2.41%      2.41% |         723     82.91%     85.32% |          64      7.34%     92.66% |          64      7.34%    100.00%
system.ruby.L1Cache_Controller.M_W.Load::total          872                      
system.ruby.L1Cache_Controller.M_W.Store |          16     28.07%     28.07% |           3      5.26%     33.33% |           1      1.75%     35.09% |          37     64.91%    100.00%
system.ruby.L1Cache_Controller.M_W.Store::total           57                      
system.ruby.L1Cache_Controller.M_W.Ack   |        6958     23.18%     23.18% |       13729     45.73%     68.91% |        7117     23.71%     92.62% |        2217      7.38%    100.00%
system.ruby.L1Cache_Controller.M_W.Ack::total        30021                      
system.ruby.L1Cache_Controller.M_W.All_acks_no_sharers |       11936     21.86%     21.86% |       16420     30.07%     51.93% |       15724     28.80%     80.73% |       10521     19.27%    100.00%
system.ruby.L1Cache_Controller.M_W.All_acks_no_sharers::total        54601                      
system.ruby.L1Cache_Controller.MM_W.Load |           0      0.00%      0.00% |           0      0.00%      0.00% |           0      0.00%      0.00% |           1    100.00%    100.00%
system.ruby.L1Cache_Controller.MM_W.Load::total            1                      
system.ruby.L1Cache_Controller.MM_W.Store |        1197     21.31%     21.31% |         987     17.57%     38.88% |        2060     36.67%     75.54% |        1374     24.46%    100.00%
system.ruby.L1Cache_Controller.MM_W.Store::total         5618                      
system.ruby.L1Cache_Controller.MM_W.Ack  |        3065     21.89%     21.89% |        2167     15.48%     37.37% |        5476     39.12%     76.49% |        3291     23.51%    100.00%
system.ruby.L1Cache_Controller.MM_W.Ack::total        13999                      
system.ruby.L1Cache_Controller.MM_W.All_acks_no_sharers |        4541     11.66%     11.66% |        7758     19.93%     31.59% |        8093     20.79%     52.38% |       18538     47.62%    100.00%
system.ruby.L1Cache_Controller.MM_W.All_acks_no_sharers::total        38930                      
system.ruby.L1Cache_Controller.IS.Other_GETS |           0      0.00%      0.00% |           0      0.00%      0.00% |           0      0.00%      0.00% |           1    100.00%    100.00%
system.ruby.L1Cache_Controller.IS.Other_GETS::total            1                      
system.ruby.L1Cache_Controller.IS.Ack    |       25890     18.50%     18.50% |       32782     23.43%     41.93% |       46892     33.51%     75.44% |       34365     24.56%    100.00%
system.ruby.L1Cache_Controller.IS.Ack::total       139929                      
system.ruby.L1Cache_Controller.IS.Shared_Ack |        2714     16.06%     16.06% |        5010     29.65%     45.71% |        2144     12.69%     58.40% |        7030     41.60%    100.00%
system.ruby.L1Cache_Controller.IS.Shared_Ack::total        16898                      
system.ruby.L1Cache_Controller.IS.Data   |          37     12.67%     12.67% |          38     13.01%     25.68% |         173     59.25%     84.93% |          44     15.07%    100.00%
system.ruby.L1Cache_Controller.IS.Data::total          292                      
system.ruby.L1Cache_Controller.IS.Shared_Data |       11040     18.27%     18.27% |       17394     28.78%     47.05% |       16926     28.01%     75.06% |       15068     24.94%    100.00%
system.ruby.L1Cache_Controller.IS.Shared_Data::total        60428                      
system.ruby.L1Cache_Controller.IS.Exclusive_Data |       11952     21.87%     21.87% |       16423     30.05%     51.91% |       15725     28.77%     80.68% |       10558     19.32%    100.00%
system.ruby.L1Cache_Controller.IS.Exclusive_Data::total        54658                      
system.ruby.L1Cache_Controller.SS.Load   |           5      1.52%      1.52% |          76     23.17%     24.70% |         135     41.16%     65.85% |         112     34.15%    100.00%
system.ruby.L1Cache_Controller.SS.Load::total          328                      
system.ruby.L1Cache_Controller.SS.Ifetch |         965     11.27%     11.27% |        3736     43.61%     54.88% |        1505     17.57%     72.45% |        2360     27.55%    100.00%
system.ruby.L1Cache_Controller.SS.Ifetch::total         8566                      
system.ruby.L1Cache_Controller.SS.Store  |           0      0.00%      0.00% |           2      6.25%      6.25% |          27     84.38%     90.62% |           3      9.38%    100.00%
system.ruby.L1Cache_Controller.SS.Store::total           32                      
system.ruby.L1Cache_Controller.SS.Ack    |        5961     15.10%     15.10% |       16649     42.19%     57.29% |       12722     32.24%     89.53% |        4132     10.47%    100.00%
system.ruby.L1Cache_Controller.SS.Ack::total        39464                      
system.ruby.L1Cache_Controller.SS.Shared_Ack |        6908     28.01%     28.01% |        3255     13.20%     41.20% |        4388     17.79%     58.99% |       10116     41.01%    100.00%
system.ruby.L1Cache_Controller.SS.Shared_Ack::total        24667                      
system.ruby.L1Cache_Controller.SS.All_acks |       11073     18.24%     18.24% |       17432     28.71%     46.95% |       17095     28.16%     75.11% |       15111     24.89%    100.00%
system.ruby.L1Cache_Controller.SS.All_acks::total        60711                      
system.ruby.L1Cache_Controller.SS.All_acks_no_sharers |           4     44.44%     44.44% |           0      0.00%     44.44% |           4     44.44%     88.89% |           1     11.11%    100.00%
system.ruby.L1Cache_Controller.SS.All_acks_no_sharers::total            9                      
system.ruby.L1Cache_Controller.OI.Load   |           0      0.00%      0.00% |           0      0.00%      0.00% |           4    100.00%    100.00% |           0      0.00%    100.00%
system.ruby.L1Cache_Controller.OI.Load::total            4                      
system.ruby.L1Cache_Controller.OI.Ifetch |           0      0.00%      0.00% |           1     33.33%     33.33% |           2     66.67%    100.00% |           0      0.00%    100.00%
system.ruby.L1Cache_Controller.OI.Ifetch::total            3                      
system.ruby.L1Cache_Controller.OI.Writeback_Ack |          42      4.09%      4.09% |          37      3.61%      7.70% |         836     81.48%     89.18% |         111     10.82%    100.00%
system.ruby.L1Cache_Controller.OI.Writeback_Ack::total         1026                      
system.ruby.L1Cache_Controller.MI.Store  |           1     33.33%     33.33% |           0      0.00%     33.33% |           0      0.00%     33.33% |           2     66.67%    100.00%
system.ruby.L1Cache_Controller.MI.Store::total            3                      
system.ruby.L1Cache_Controller.MI.Writeback_Ack |         112      3.89%      3.89% |         281      9.75%     13.64% |        1393     48.33%     61.97% |        1096     38.03%    100.00%
system.ruby.L1Cache_Controller.MI.Writeback_Ack::total         2882                      
system.ruby.L1Cache_Controller.ST.Complete_L2_to_L1 |       43357      2.24%      2.24% |       31586      1.63%      3.87% |       33648      1.74%      5.60% |     1829932     94.40%    100.00%
system.ruby.L1Cache_Controller.ST.Complete_L2_to_L1::total      1938523                      
system.ruby.L1Cache_Controller.OT.Complete_L2_to_L1 |       10030     16.13%     16.13% |       16437     26.43%     42.56% |       31902     51.30%     93.86% |        3815      6.14%    100.00%
system.ruby.L1Cache_Controller.OT.Complete_L2_to_L1::total        62184                      
system.ruby.L1Cache_Controller.MT.Complete_L2_to_L1 |        7398     10.12%     10.12% |        3613      4.94%     15.06% |       19147     26.18%     41.24% |       42965     58.76%    100.00%
system.ruby.L1Cache_Controller.MT.Complete_L2_to_L1::total        73123                      
system.ruby.L1Cache_Controller.MMT.Complete_L2_to_L1 |        6709      0.70%      0.70% |        6225      0.65%      1.35% |       19316      2.01%      3.36% |      928973     96.64%    100.00%
system.ruby.L1Cache_Controller.MMT.Complete_L2_to_L1::total       961223                      

---------- End Simulation Statistics   ----------
