
---------- Begin Simulation Statistics ----------
sim_seconds                                  9.225463                       # Number of seconds simulated
sim_ticks                                9225463228500                       # Number of ticks simulated
final_tick                               61669245333001                       # Number of ticks from beginning of simulation (restored from checkpoints and never reset)
sim_freq                                 1000000000000                       # Frequency of simulated ticks
host_inst_rate                                 178085                       # Simulator instruction rate (inst/s)
host_op_rate                                   291812                       # Simulator op (including micro ops) rate (op/s)
host_tick_rate                              293158898                       # Simulator tick rate (ticks/s)
host_mem_usage                                2033332                       # Number of bytes of host memory used
host_seconds                                 31469.16                       # Real time elapsed on the host
sim_insts                                  5604173952                       # Number of instructions simulated
sim_ops                                    9183068794                       # Number of ops (including micro ops) simulated
system.voltage_domain.voltage                       1                       # Voltage in Volts
system.clk_domain.clock                          1000                       # Clock period in ticks
system.mem_ctrls.bytes_read::ruby.dir_cntrl0    351943744                       # Number of bytes read from this memory
system.mem_ctrls.bytes_read::total          351943744                       # Number of bytes read from this memory
system.mem_ctrls.bytes_written::ruby.dir_cntrl0    352107232                       # Number of bytes written to this memory
system.mem_ctrls.bytes_written::total       352107232                       # Number of bytes written to this memory
system.mem_ctrls.num_reads::ruby.dir_cntrl0     10998242                       # Number of read requests responded to by this memory
system.mem_ctrls.num_reads::total            10998242                       # Number of read requests responded to by this memory
system.mem_ctrls.num_writes::ruby.dir_cntrl0     11003351                       # Number of write requests responded to by this memory
system.mem_ctrls.num_writes::total           11003351                       # Number of write requests responded to by this memory
system.mem_ctrls.bw_read::ruby.dir_cntrl0     38149168                       # Total read bandwidth from this memory (bytes/s)
system.mem_ctrls.bw_read::total              38149168                       # Total read bandwidth from this memory (bytes/s)
system.mem_ctrls.bw_write::ruby.dir_cntrl0     38166889                       # Write bandwidth from this memory (bytes/s)
system.mem_ctrls.bw_write::total             38166889                       # Write bandwidth from this memory (bytes/s)
system.mem_ctrls.bw_total::ruby.dir_cntrl0     76316057                       # Total bandwidth to/from this memory (bytes/s)
system.mem_ctrls.bw_total::total             76316057                       # Total bandwidth to/from this memory (bytes/s)
system.mem_ctrls.readReqs                    10998242                       # Number of read requests accepted
system.mem_ctrls.writeReqs                   11003351                       # Number of write requests accepted
system.mem_ctrls.readBursts                  10998242                       # Number of DRAM read bursts, including those serviced by the write queue
system.mem_ctrls.writeBursts                 11003351                       # Number of DRAM write bursts, including those merged in the write queue
system.mem_ctrls.bytesReadDRAM              665347904                       # Total number of bytes read from DRAM
system.mem_ctrls.bytesReadWrQ                38539584                       # Total number of bytes read from write queue
system.mem_ctrls.bytesWritten               585285568                       # Total number of bytes written to DRAM
system.mem_ctrls.bytesReadSys               351943744                       # Total read bytes from the system interface side
system.mem_ctrls.bytesWrittenSys            352107232                       # Total written bytes from the system interface side
system.mem_ctrls.servicedByWrQ                 602181                       # Number of DRAM read bursts serviced by the write queue
system.mem_ctrls.mergedWrBursts               1858261                       # Number of DRAM write bursts merged with an existing one
system.mem_ctrls.neitherReadNorWriteReqs            0                       # Number of requests that are neither read nor write
system.mem_ctrls.perBankRdBursts::0           1755105                       # Per bank write bursts
system.mem_ctrls.perBankRdBursts::1            679353                       # Per bank write bursts
system.mem_ctrls.perBankRdBursts::2            193285                       # Per bank write bursts
system.mem_ctrls.perBankRdBursts::3            309418                       # Per bank write bursts
system.mem_ctrls.perBankRdBursts::4            289063                       # Per bank write bursts
system.mem_ctrls.perBankRdBursts::5            632811                       # Per bank write bursts
system.mem_ctrls.perBankRdBursts::6            273135                       # Per bank write bursts
system.mem_ctrls.perBankRdBursts::7            546904                       # Per bank write bursts
system.mem_ctrls.perBankRdBursts::8            396832                       # Per bank write bursts
system.mem_ctrls.perBankRdBursts::9            393246                       # Per bank write bursts
system.mem_ctrls.perBankRdBursts::10           223975                       # Per bank write bursts
system.mem_ctrls.perBankRdBursts::11           733905                       # Per bank write bursts
system.mem_ctrls.perBankRdBursts::12           929445                       # Per bank write bursts
system.mem_ctrls.perBankRdBursts::13          1147311                       # Per bank write bursts
system.mem_ctrls.perBankRdBursts::14           678042                       # Per bank write bursts
system.mem_ctrls.perBankRdBursts::15          1214231                       # Per bank write bursts
system.mem_ctrls.perBankWrBursts::0           1545689                       # Per bank write bursts
system.mem_ctrls.perBankWrBursts::1            570947                       # Per bank write bursts
system.mem_ctrls.perBankWrBursts::2            180263                       # Per bank write bursts
system.mem_ctrls.perBankWrBursts::3            283732                       # Per bank write bursts
system.mem_ctrls.perBankWrBursts::4            264656                       # Per bank write bursts
system.mem_ctrls.perBankWrBursts::5            523507                       # Per bank write bursts
system.mem_ctrls.perBankWrBursts::6            249424                       # Per bank write bursts
system.mem_ctrls.perBankWrBursts::7            491587                       # Per bank write bursts
system.mem_ctrls.perBankWrBursts::8            403581                       # Per bank write bursts
system.mem_ctrls.perBankWrBursts::9            329482                       # Per bank write bursts
system.mem_ctrls.perBankWrBursts::10           209876                       # Per bank write bursts
system.mem_ctrls.perBankWrBursts::11           652914                       # Per bank write bursts
system.mem_ctrls.perBankWrBursts::12           810098                       # Per bank write bursts
system.mem_ctrls.perBankWrBursts::13           966097                       # Per bank write bursts
system.mem_ctrls.perBankWrBursts::14           598577                       # Per bank write bursts
system.mem_ctrls.perBankWrBursts::15          1064657                       # Per bank write bursts
system.mem_ctrls.numRdRetry                         0                       # Number of times read queue was full causing retry
system.mem_ctrls.numWrRetry                         0                       # Number of times write queue was full causing retry
system.mem_ctrls.totGap                  9225463231500                       # Total gap between requests
system.mem_ctrls.readPktSize::0                     0                       # Read request sizes (log2)
system.mem_ctrls.readPktSize::1                     0                       # Read request sizes (log2)
system.mem_ctrls.readPktSize::2                     0                       # Read request sizes (log2)
system.mem_ctrls.readPktSize::3                     0                       # Read request sizes (log2)
system.mem_ctrls.readPktSize::4                     0                       # Read request sizes (log2)
system.mem_ctrls.readPktSize::5              10998242                       # Read request sizes (log2)
system.mem_ctrls.readPktSize::6                     0                       # Read request sizes (log2)
system.mem_ctrls.writePktSize::0                    0                       # Write request sizes (log2)
system.mem_ctrls.writePktSize::1                    0                       # Write request sizes (log2)
system.mem_ctrls.writePktSize::2                    0                       # Write request sizes (log2)
system.mem_ctrls.writePktSize::3                    0                       # Write request sizes (log2)
system.mem_ctrls.writePktSize::4                    0                       # Write request sizes (log2)
system.mem_ctrls.writePktSize::5             11003351                       # Write request sizes (log2)
system.mem_ctrls.writePktSize::6                    0                       # Write request sizes (log2)
system.mem_ctrls.rdQLenPdf::0                10366178                       # What read queue length does an incoming req see
system.mem_ctrls.rdQLenPdf::1                   29817                       # What read queue length does an incoming req see
system.mem_ctrls.rdQLenPdf::2                      66                       # What read queue length does an incoming req see
system.mem_ctrls.rdQLenPdf::3                       0                       # What read queue length does an incoming req see
system.mem_ctrls.rdQLenPdf::4                       0                       # What read queue length does an incoming req see
system.mem_ctrls.rdQLenPdf::5                       0                       # What read queue length does an incoming req see
system.mem_ctrls.rdQLenPdf::6                       0                       # What read queue length does an incoming req see
system.mem_ctrls.rdQLenPdf::7                       0                       # What read queue length does an incoming req see
system.mem_ctrls.rdQLenPdf::8                       0                       # What read queue length does an incoming req see
system.mem_ctrls.rdQLenPdf::9                       0                       # What read queue length does an incoming req see
system.mem_ctrls.rdQLenPdf::10                      0                       # What read queue length does an incoming req see
system.mem_ctrls.rdQLenPdf::11                      0                       # What read queue length does an incoming req see
system.mem_ctrls.rdQLenPdf::12                      0                       # What read queue length does an incoming req see
system.mem_ctrls.rdQLenPdf::13                      0                       # What read queue length does an incoming req see
system.mem_ctrls.rdQLenPdf::14                      0                       # What read queue length does an incoming req see
system.mem_ctrls.rdQLenPdf::15                      0                       # What read queue length does an incoming req see
system.mem_ctrls.rdQLenPdf::16                      0                       # What read queue length does an incoming req see
system.mem_ctrls.rdQLenPdf::17                      0                       # What read queue length does an incoming req see
system.mem_ctrls.rdQLenPdf::18                      0                       # What read queue length does an incoming req see
system.mem_ctrls.rdQLenPdf::19                      0                       # What read queue length does an incoming req see
system.mem_ctrls.rdQLenPdf::20                      0                       # What read queue length does an incoming req see
system.mem_ctrls.rdQLenPdf::21                      0                       # What read queue length does an incoming req see
system.mem_ctrls.rdQLenPdf::22                      0                       # What read queue length does an incoming req see
system.mem_ctrls.rdQLenPdf::23                      0                       # What read queue length does an incoming req see
system.mem_ctrls.rdQLenPdf::24                      0                       # What read queue length does an incoming req see
system.mem_ctrls.rdQLenPdf::25                      0                       # What read queue length does an incoming req see
system.mem_ctrls.rdQLenPdf::26                      0                       # What read queue length does an incoming req see
system.mem_ctrls.rdQLenPdf::27                      0                       # What read queue length does an incoming req see
system.mem_ctrls.rdQLenPdf::28                      0                       # What read queue length does an incoming req see
system.mem_ctrls.rdQLenPdf::29                      0                       # What read queue length does an incoming req see
system.mem_ctrls.rdQLenPdf::30                      0                       # What read queue length does an incoming req see
system.mem_ctrls.rdQLenPdf::31                      0                       # What read queue length does an incoming req see
system.mem_ctrls.wrQLenPdf::0                       0                       # What write queue length does an incoming req see
system.mem_ctrls.wrQLenPdf::1                       0                       # What write queue length does an incoming req see
system.mem_ctrls.wrQLenPdf::2                       0                       # What write queue length does an incoming req see
system.mem_ctrls.wrQLenPdf::3                       0                       # What write queue length does an incoming req see
system.mem_ctrls.wrQLenPdf::4                       0                       # What write queue length does an incoming req see
system.mem_ctrls.wrQLenPdf::5                       0                       # What write queue length does an incoming req see
system.mem_ctrls.wrQLenPdf::6                       0                       # What write queue length does an incoming req see
system.mem_ctrls.wrQLenPdf::7                       0                       # What write queue length does an incoming req see
system.mem_ctrls.wrQLenPdf::8                       0                       # What write queue length does an incoming req see
system.mem_ctrls.wrQLenPdf::9                       0                       # What write queue length does an incoming req see
system.mem_ctrls.wrQLenPdf::10                      0                       # What write queue length does an incoming req see
system.mem_ctrls.wrQLenPdf::11                      0                       # What write queue length does an incoming req see
system.mem_ctrls.wrQLenPdf::12                      0                       # What write queue length does an incoming req see
system.mem_ctrls.wrQLenPdf::13                      0                       # What write queue length does an incoming req see
system.mem_ctrls.wrQLenPdf::14                      0                       # What write queue length does an incoming req see
system.mem_ctrls.wrQLenPdf::15                  28607                       # What write queue length does an incoming req see
system.mem_ctrls.wrQLenPdf::16                  32435                       # What write queue length does an incoming req see
system.mem_ctrls.wrQLenPdf::17                 555732                       # What write queue length does an incoming req see
system.mem_ctrls.wrQLenPdf::18                 568625                       # What write queue length does an incoming req see
system.mem_ctrls.wrQLenPdf::19                 569709                       # What write queue length does an incoming req see
system.mem_ctrls.wrQLenPdf::20                 569814                       # What write queue length does an incoming req see
system.mem_ctrls.wrQLenPdf::21                 570073                       # What write queue length does an incoming req see
system.mem_ctrls.wrQLenPdf::22                 570712                       # What write queue length does an incoming req see
system.mem_ctrls.wrQLenPdf::23                 570445                       # What write queue length does an incoming req see
system.mem_ctrls.wrQLenPdf::24                 569044                       # What write queue length does an incoming req see
system.mem_ctrls.wrQLenPdf::25                 568580                       # What write queue length does an incoming req see
system.mem_ctrls.wrQLenPdf::26                 567659                       # What write queue length does an incoming req see
system.mem_ctrls.wrQLenPdf::27                 567263                       # What write queue length does an incoming req see
system.mem_ctrls.wrQLenPdf::28                 567166                       # What write queue length does an incoming req see
system.mem_ctrls.wrQLenPdf::29                 567122                       # What write queue length does an incoming req see
system.mem_ctrls.wrQLenPdf::30                 567054                       # What write queue length does an incoming req see
system.mem_ctrls.wrQLenPdf::31                 567002                       # What write queue length does an incoming req see
system.mem_ctrls.wrQLenPdf::32                 566993                       # What write queue length does an incoming req see
system.mem_ctrls.wrQLenPdf::33                    692                       # What write queue length does an incoming req see
system.mem_ctrls.wrQLenPdf::34                    191                       # What write queue length does an incoming req see
system.mem_ctrls.wrQLenPdf::35                     80                       # What write queue length does an incoming req see
system.mem_ctrls.wrQLenPdf::36                     45                       # What write queue length does an incoming req see
system.mem_ctrls.wrQLenPdf::37                     28                       # What write queue length does an incoming req see
system.mem_ctrls.wrQLenPdf::38                     13                       # What write queue length does an incoming req see
system.mem_ctrls.wrQLenPdf::39                      6                       # What write queue length does an incoming req see
system.mem_ctrls.wrQLenPdf::40                      0                       # What write queue length does an incoming req see
system.mem_ctrls.wrQLenPdf::41                      0                       # What write queue length does an incoming req see
system.mem_ctrls.wrQLenPdf::42                      0                       # What write queue length does an incoming req see
system.mem_ctrls.wrQLenPdf::43                      0                       # What write queue length does an incoming req see
system.mem_ctrls.wrQLenPdf::44                      0                       # What write queue length does an incoming req see
system.mem_ctrls.wrQLenPdf::45                      0                       # What write queue length does an incoming req see
system.mem_ctrls.wrQLenPdf::46                      0                       # What write queue length does an incoming req see
system.mem_ctrls.wrQLenPdf::47                      0                       # What write queue length does an incoming req see
system.mem_ctrls.wrQLenPdf::48                      0                       # What write queue length does an incoming req see
system.mem_ctrls.wrQLenPdf::49                      0                       # What write queue length does an incoming req see
system.mem_ctrls.wrQLenPdf::50                      0                       # What write queue length does an incoming req see
system.mem_ctrls.wrQLenPdf::51                      0                       # What write queue length does an incoming req see
system.mem_ctrls.wrQLenPdf::52                      0                       # What write queue length does an incoming req see
system.mem_ctrls.wrQLenPdf::53                      0                       # What write queue length does an incoming req see
system.mem_ctrls.wrQLenPdf::54                      0                       # What write queue length does an incoming req see
system.mem_ctrls.wrQLenPdf::55                      0                       # What write queue length does an incoming req see
system.mem_ctrls.wrQLenPdf::56                      0                       # What write queue length does an incoming req see
system.mem_ctrls.wrQLenPdf::57                      0                       # What write queue length does an incoming req see
system.mem_ctrls.wrQLenPdf::58                      0                       # What write queue length does an incoming req see
system.mem_ctrls.wrQLenPdf::59                      0                       # What write queue length does an incoming req see
system.mem_ctrls.wrQLenPdf::60                      0                       # What write queue length does an incoming req see
system.mem_ctrls.wrQLenPdf::61                      0                       # What write queue length does an incoming req see
system.mem_ctrls.wrQLenPdf::62                      0                       # What write queue length does an incoming req see
system.mem_ctrls.wrQLenPdf::63                      0                       # What write queue length does an incoming req see
system.mem_ctrls.bytesPerActivate::samples      5955498                       # Bytes accessed per row activation
system.mem_ctrls.bytesPerActivate::mean    209.996338                       # Bytes accessed per row activation
system.mem_ctrls.bytesPerActivate::gmean   149.038448                       # Bytes accessed per row activation
system.mem_ctrls.bytesPerActivate::stdev   197.682149                       # Bytes accessed per row activation
system.mem_ctrls.bytesPerActivate::0-127      2192025     36.81%     36.81% # Bytes accessed per row activation
system.mem_ctrls.bytesPerActivate::128-255      1918008     32.21%     69.01% # Bytes accessed per row activation
system.mem_ctrls.bytesPerActivate::256-383       831667     13.96%     82.98% # Bytes accessed per row activation
system.mem_ctrls.bytesPerActivate::384-511       426398      7.16%     90.14% # Bytes accessed per row activation
system.mem_ctrls.bytesPerActivate::512-639       249803      4.19%     94.33% # Bytes accessed per row activation
system.mem_ctrls.bytesPerActivate::640-767       144311      2.42%     96.75% # Bytes accessed per row activation
system.mem_ctrls.bytesPerActivate::768-895        75484      1.27%     98.02% # Bytes accessed per row activation
system.mem_ctrls.bytesPerActivate::896-1023        43029      0.72%     98.74% # Bytes accessed per row activation
system.mem_ctrls.bytesPerActivate::1024-1151        74773      1.26%    100.00% # Bytes accessed per row activation
system.mem_ctrls.bytesPerActivate::total      5955498                       # Bytes accessed per row activation
system.mem_ctrls.rdPerTurnAround::samples       566984                       # Reads before turning the bus around for writes
system.mem_ctrls.rdPerTurnAround::mean      18.335715                       # Reads before turning the bus around for writes
system.mem_ctrls.rdPerTurnAround::stdev      4.117188                       # Reads before turning the bus around for writes
system.mem_ctrls.rdPerTurnAround::0-7            8959      1.58%      1.58% # Reads before turning the bus around for writes
system.mem_ctrls.rdPerTurnAround::8-15          77282     13.63%     15.21% # Reads before turning the bus around for writes
system.mem_ctrls.rdPerTurnAround::16-23        444801     78.45%     93.66% # Reads before turning the bus around for writes
system.mem_ctrls.rdPerTurnAround::24-31         33248      5.86%     99.52% # Reads before turning the bus around for writes
system.mem_ctrls.rdPerTurnAround::32-39          1421      0.25%     99.78% # Reads before turning the bus around for writes
system.mem_ctrls.rdPerTurnAround::40-47           452      0.08%     99.86% # Reads before turning the bus around for writes
system.mem_ctrls.rdPerTurnAround::48-55           304      0.05%     99.91% # Reads before turning the bus around for writes
system.mem_ctrls.rdPerTurnAround::56-63           248      0.04%     99.95% # Reads before turning the bus around for writes
system.mem_ctrls.rdPerTurnAround::64-71           147      0.03%     99.98% # Reads before turning the bus around for writes
system.mem_ctrls.rdPerTurnAround::72-79            66      0.01%     99.99% # Reads before turning the bus around for writes
system.mem_ctrls.rdPerTurnAround::80-87            28      0.00%    100.00% # Reads before turning the bus around for writes
system.mem_ctrls.rdPerTurnAround::88-95            13      0.00%    100.00% # Reads before turning the bus around for writes
system.mem_ctrls.rdPerTurnAround::96-103            5      0.00%    100.00% # Reads before turning the bus around for writes
system.mem_ctrls.rdPerTurnAround::104-111            3      0.00%    100.00% # Reads before turning the bus around for writes
system.mem_ctrls.rdPerTurnAround::112-119            1      0.00%    100.00% # Reads before turning the bus around for writes
system.mem_ctrls.rdPerTurnAround::120-127            2      0.00%    100.00% # Reads before turning the bus around for writes
system.mem_ctrls.rdPerTurnAround::136-143            2      0.00%    100.00% # Reads before turning the bus around for writes
system.mem_ctrls.rdPerTurnAround::160-167            1      0.00%    100.00% # Reads before turning the bus around for writes
system.mem_ctrls.rdPerTurnAround::184-191            1      0.00%    100.00% # Reads before turning the bus around for writes
system.mem_ctrls.rdPerTurnAround::total        566984                       # Reads before turning the bus around for writes
system.mem_ctrls.wrPerTurnAround::samples       566984                       # Writes before turning the bus around for reads
system.mem_ctrls.wrPerTurnAround::mean      16.129356                       # Writes before turning the bus around for reads
system.mem_ctrls.wrPerTurnAround::gmean     16.120620                       # Writes before turning the bus around for reads
system.mem_ctrls.wrPerTurnAround::stdev      0.558309                       # Writes before turning the bus around for reads
system.mem_ctrls.wrPerTurnAround::16           534942     94.35%     94.35% # Writes before turning the bus around for reads
system.mem_ctrls.wrPerTurnAround::17             1744      0.31%     94.66% # Writes before turning the bus around for reads
system.mem_ctrls.wrPerTurnAround::18            22304      3.93%     98.59% # Writes before turning the bus around for reads
system.mem_ctrls.wrPerTurnAround::19             5524      0.97%     99.56% # Writes before turning the bus around for reads
system.mem_ctrls.wrPerTurnAround::20             2170      0.38%     99.95% # Writes before turning the bus around for reads
system.mem_ctrls.wrPerTurnAround::21              210      0.04%     99.98% # Writes before turning the bus around for reads
system.mem_ctrls.wrPerTurnAround::22               36      0.01%     99.99% # Writes before turning the bus around for reads
system.mem_ctrls.wrPerTurnAround::23               14      0.00%     99.99% # Writes before turning the bus around for reads
system.mem_ctrls.wrPerTurnAround::24               14      0.00%    100.00% # Writes before turning the bus around for reads
system.mem_ctrls.wrPerTurnAround::25               10      0.00%    100.00% # Writes before turning the bus around for reads
system.mem_ctrls.wrPerTurnAround::26                9      0.00%    100.00% # Writes before turning the bus around for reads
system.mem_ctrls.wrPerTurnAround::27                2      0.00%    100.00% # Writes before turning the bus around for reads
system.mem_ctrls.wrPerTurnAround::28                4      0.00%    100.00% # Writes before turning the bus around for reads
system.mem_ctrls.wrPerTurnAround::29                1      0.00%    100.00% # Writes before turning the bus around for reads
system.mem_ctrls.wrPerTurnAround::total        566984                       # Writes before turning the bus around for reads
system.mem_ctrls.totQLat                 140346397788                       # Total ticks spent queuing
system.mem_ctrls.totMemAccLat            335272541538                       # Total ticks spent from burst creation until serviced by the DRAM
system.mem_ctrls.totBusLat                51980305000                       # Total ticks spent in databus transfers
system.mem_ctrls.avgQLat                     13499.96                       # Average queueing delay per DRAM burst
system.mem_ctrls.avgBusLat                    5000.00                       # Average bus latency per DRAM burst
system.mem_ctrls.avgMemAccLat                32249.96                       # Average memory access latency per DRAM burst
system.mem_ctrls.avgRdBW                        72.12                       # Average DRAM read bandwidth in MiByte/s
system.mem_ctrls.avgWrBW                        63.44                       # Average achieved write bandwidth in MiByte/s
system.mem_ctrls.avgRdBWSys                     38.15                       # Average system read bandwidth in MiByte/s
system.mem_ctrls.avgWrBWSys                     38.17                       # Average system write bandwidth in MiByte/s
system.mem_ctrls.peakBW                      12800.00                       # Theoretical peak bandwidth in MiByte/s
system.mem_ctrls.busUtil                         1.06                       # Data bus utilization in percentage
system.mem_ctrls.busUtilRead                     0.56                       # Data bus utilization in percentage for reads
system.mem_ctrls.busUtilWrite                    0.50                       # Data bus utilization in percentage for writes
system.mem_ctrls.avgRdQLen                       1.00                       # Average read queue length when enqueuing
system.mem_ctrls.avgWrQLen                      25.05                       # Average write queue length when enqueuing
system.mem_ctrls.readRowHits                  7428185                       # Number of row buffer hits during reads
system.mem_ctrls.writeRowHits                 6157460                       # Number of row buffer hits during writes
system.mem_ctrls.readRowHitRate                 71.45                       # Row buffer hit rate for reads
system.mem_ctrls.writeRowHitRate                67.33                       # Row buffer hit rate for writes
system.mem_ctrls.avgGap                     419308.88                       # Average gap between requests
system.mem_ctrls.pageHitRate                    69.52                       # Row buffer hit rate, read and write combined
system.mem_ctrls_0.actEnergy              19970034840                       # Energy for activate commands per rank (pJ)
system.mem_ctrls_0.preEnergy              10896348375                       # Energy for precharge commands per rank (pJ)
system.mem_ctrls_0.readEnergy             36763069200                       # Energy for read commands per rank (pJ)
system.mem_ctrls_0.writeEnergy            26806127040                       # Energy for write commands per rank (pJ)
system.mem_ctrls_0.refreshEnergy         602983318080                       # Energy for refresh commands per rank (pJ)
system.mem_ctrls_0.actBackEnergy         1874865290355                       # Energy for active background per rank (pJ)
system.mem_ctrls_0.preBackEnergy         3894525959250                       # Energy for precharge background per rank (pJ)
system.mem_ctrls_0.totalEnergy           6466810147140                       # Total energy per rank (pJ)
system.mem_ctrls_0.averagePower            700.484704                       # Core power per rank (mW)
system.mem_ctrls_0.memoryStateTime::IDLE 6467423339000                       # Time in different power states
system.mem_ctrls_0.memoryStateTime::REF  308058400000                       # Time in different power states
system.mem_ctrls_0.memoryStateTime::PRE_PDN            0                       # Time in different power states
system.mem_ctrls_0.memoryStateTime::ACT  2449978687500                       # Time in different power states
system.mem_ctrls_0.memoryStateTime::ACT_PDN            0                       # Time in different power states
system.mem_ctrls_1.actEnergy              25367519520                       # Energy for activate commands per rank (pJ)
system.mem_ctrls_1.preEnergy              13841404500                       # Energy for precharge commands per rank (pJ)
system.mem_ctrls_1.readEnergy             44849992200                       # Energy for read commands per rank (pJ)
system.mem_ctrls_1.writeEnergy            32791158720                       # Energy for write commands per rank (pJ)
system.mem_ctrls_1.refreshEnergy         602983318080                       # Energy for refresh commands per rank (pJ)
system.mem_ctrls_1.actBackEnergy         2108154846465                       # Energy for active background per rank (pJ)
system.mem_ctrls_1.preBackEnergy         3689885997750                       # Energy for precharge background per rank (pJ)
system.mem_ctrls_1.totalEnergy           6517874237235                       # Total energy per rank (pJ)
system.mem_ctrls_1.averagePower            706.015965                       # Core power per rank (mW)
system.mem_ctrls_1.memoryStateTime::IDLE 6126438660750                       # Time in different power states
system.mem_ctrls_1.memoryStateTime::REF  308058400000                       # Time in different power states
system.mem_ctrls_1.memoryStateTime::PRE_PDN            0                       # Time in different power states
system.mem_ctrls_1.memoryStateTime::ACT  2790962839250                       # Time in different power states
system.mem_ctrls_1.memoryStateTime::ACT_PDN            0                       # Time in different power states
system.cpu_voltage_domain.voltage                   1                       # Voltage in Volts
system.cpu_clk_domain.clock                       500                       # Clock period in ticks
system.cpu0.apic_clk_domain.clock                8000                       # Clock period in ticks
system.cpu0.numCycles                     18458162651                       # number of cpu cycles simulated
system.cpu0.numWorkItemsStarted                     0                       # number of work items this cpu started
system.cpu0.numWorkItemsCompleted                   0                       # number of work items this cpu completed
system.cpu0.kern.inst.arm                           0                       # number of arm instructions executed
system.cpu0.kern.inst.quiesce                       0                       # number of quiesce instructions executed
system.cpu0.committedInsts                 5565846076                       # Number of instructions committed
system.cpu0.committedOps                   9108577506                       # Number of ops (including micro ops) committed
system.cpu0.num_int_alu_accesses           6331759932                       # Number of integer alu accesses
system.cpu0.num_fp_alu_accesses            3151485677                       # Number of float alu accesses
system.cpu0.num_func_calls                   50128657                       # number of times a function call or return occured
system.cpu0.num_conditional_control_insts    913879444                       # number of instructions that are conditional controls
system.cpu0.num_int_insts                  6331759932                       # number of integer instructions
system.cpu0.num_fp_insts                   3151485677                       # number of float instructions
system.cpu0.num_int_register_reads         9511758349                       # number of times the integer registers were read
system.cpu0.num_int_register_writes        4912046772                       # number of times the integer registers were written
system.cpu0.num_fp_register_reads          7412290182                       # number of times the floating registers were read
system.cpu0.num_fp_register_writes         2327363838                       # number of times the floating registers were written
system.cpu0.num_cc_register_reads          6287568923                       # number of times the CC registers were read
system.cpu0.num_cc_register_writes         3896075615                       # number of times the CC registers were written
system.cpu0.num_mem_refs                    739597618                       # number of memory refs
system.cpu0.num_load_insts                  572650336                       # Number of load instructions
system.cpu0.num_store_insts                 166947282                       # Number of store instructions
system.cpu0.num_idle_cycles              80338328.211058                       # Number of idle cycles
system.cpu0.num_busy_cycles              18377824322.788944                       # Number of busy cycles
system.cpu0.not_idle_fraction                0.995648                       # Percentage of non-idle cycles
system.cpu0.idle_fraction                    0.004352                       # Percentage of idle cycles
system.cpu0.Branches                        975462272                       # Number of branches fetched
system.cpu0.op_class::No_OpClass              1548416      0.02%      0.02% # Class of executed instruction
system.cpu0.op_class::IntAlu               5762140668     63.26%     63.28% # Class of executed instruction
system.cpu0.op_class::IntMult                24063645      0.26%     63.54% # Class of executed instruction
system.cpu0.op_class::IntDiv                   211222      0.00%     63.54% # Class of executed instruction
system.cpu0.op_class::FloatAdd             2581016092     28.34%     91.88% # Class of executed instruction
system.cpu0.op_class::FloatCmp                      0      0.00%     91.88% # Class of executed instruction
system.cpu0.op_class::FloatCvt                      0      0.00%     91.88% # Class of executed instruction
system.cpu0.op_class::FloatMult                     0      0.00%     91.88% # Class of executed instruction
system.cpu0.op_class::FloatDiv                      0      0.00%     91.88% # Class of executed instruction
system.cpu0.op_class::FloatSqrt                     0      0.00%     91.88% # Class of executed instruction
system.cpu0.op_class::SimdAdd                       0      0.00%     91.88% # Class of executed instruction
system.cpu0.op_class::SimdAddAcc                    0      0.00%     91.88% # Class of executed instruction
system.cpu0.op_class::SimdAlu                       0      0.00%     91.88% # Class of executed instruction
system.cpu0.op_class::SimdCmp                       0      0.00%     91.88% # Class of executed instruction
system.cpu0.op_class::SimdCvt                       0      0.00%     91.88% # Class of executed instruction
system.cpu0.op_class::SimdMisc                      0      0.00%     91.88% # Class of executed instruction
system.cpu0.op_class::SimdMult                      0      0.00%     91.88% # Class of executed instruction
system.cpu0.op_class::SimdMultAcc                   0      0.00%     91.88% # Class of executed instruction
system.cpu0.op_class::SimdShift                     0      0.00%     91.88% # Class of executed instruction
system.cpu0.op_class::SimdShiftAcc                  0      0.00%     91.88% # Class of executed instruction
system.cpu0.op_class::SimdSqrt                      0      0.00%     91.88% # Class of executed instruction
system.cpu0.op_class::SimdFloatAdd                  0      0.00%     91.88% # Class of executed instruction
system.cpu0.op_class::SimdFloatAlu                  0      0.00%     91.88% # Class of executed instruction
system.cpu0.op_class::SimdFloatCmp                  0      0.00%     91.88% # Class of executed instruction
system.cpu0.op_class::SimdFloatCvt                  0      0.00%     91.88% # Class of executed instruction
system.cpu0.op_class::SimdFloatDiv                  0      0.00%     91.88% # Class of executed instruction
system.cpu0.op_class::SimdFloatMisc                 0      0.00%     91.88% # Class of executed instruction
system.cpu0.op_class::SimdFloatMult                 0      0.00%     91.88% # Class of executed instruction
system.cpu0.op_class::SimdFloatMultAcc              0      0.00%     91.88% # Class of executed instruction
system.cpu0.op_class::SimdFloatSqrt                 0      0.00%     91.88% # Class of executed instruction
system.cpu0.op_class::MemRead               572650336      6.29%     98.17% # Class of executed instruction
system.cpu0.op_class::MemWrite              166947282      1.83%    100.00% # Class of executed instruction
system.cpu0.op_class::IprAccess                     0      0.00%    100.00% # Class of executed instruction
system.cpu0.op_class::InstPrefetch                  0      0.00%    100.00% # Class of executed instruction
system.cpu0.op_class::total                9108577661                       # Class of executed instruction
system.cpu1.apic_clk_domain.clock                8000                       # Clock period in ticks
system.cpu1.numCycles                     18446218547                       # number of cpu cycles simulated
system.cpu1.numWorkItemsStarted                     0                       # number of work items this cpu started
system.cpu1.numWorkItemsCompleted                   0                       # number of work items this cpu completed
system.cpu1.kern.inst.arm                           0                       # number of arm instructions executed
system.cpu1.kern.inst.quiesce                       0                       # number of quiesce instructions executed
system.cpu1.committedInsts                    6671560                       # Number of instructions committed
system.cpu1.committedOps                     14362377                       # Number of ops (including micro ops) committed
system.cpu1.num_int_alu_accesses             14046768                       # Number of integer alu accesses
system.cpu1.num_fp_alu_accesses                    65                       # Number of float alu accesses
system.cpu1.num_func_calls                     392719                       # number of times a function call or return occured
system.cpu1.num_conditional_control_insts      1021125                       # number of instructions that are conditional controls
system.cpu1.num_int_insts                    14046768                       # number of integer instructions
system.cpu1.num_fp_insts                           65                       # number of float instructions
system.cpu1.num_int_register_reads           28516562                       # number of times the integer registers were read
system.cpu1.num_int_register_writes          11660316                       # number of times the integer registers were written
system.cpu1.num_fp_register_reads                  82                       # number of times the floating registers were read
system.cpu1.num_fp_register_writes                 44                       # number of times the floating registers were written
system.cpu1.num_cc_register_reads             8159047                       # number of times the CC registers were read
system.cpu1.num_cc_register_writes            4271810                       # number of times the CC registers were written
system.cpu1.num_mem_refs                      3400344                       # number of memory refs
system.cpu1.num_load_insts                    2113736                       # Number of load instructions
system.cpu1.num_store_insts                   1286608                       # Number of store instructions
system.cpu1.num_idle_cycles              18377224711.853855                       # Number of idle cycles
system.cpu1.num_busy_cycles              68993835.146146                       # Number of busy cycles
system.cpu1.not_idle_fraction                0.003740                       # Percentage of non-idle cycles
system.cpu1.idle_fraction                    0.996260                       # Percentage of idle cycles
system.cpu1.Branches                          1541864                       # Number of branches fetched
system.cpu1.op_class::No_OpClass               269494      1.88%      1.88% # Class of executed instruction
system.cpu1.op_class::IntAlu                 10566085     73.57%     75.44% # Class of executed instruction
system.cpu1.op_class::IntMult                   29059      0.20%     75.65% # Class of executed instruction
system.cpu1.op_class::IntDiv                    97393      0.68%     76.32% # Class of executed instruction
system.cpu1.op_class::FloatAdd                     22      0.00%     76.32% # Class of executed instruction
system.cpu1.op_class::FloatCmp                      0      0.00%     76.32% # Class of executed instruction
system.cpu1.op_class::FloatCvt                      0      0.00%     76.32% # Class of executed instruction
system.cpu1.op_class::FloatMult                     0      0.00%     76.32% # Class of executed instruction
system.cpu1.op_class::FloatDiv                      0      0.00%     76.32% # Class of executed instruction
system.cpu1.op_class::FloatSqrt                     0      0.00%     76.32% # Class of executed instruction
system.cpu1.op_class::SimdAdd                       0      0.00%     76.32% # Class of executed instruction
system.cpu1.op_class::SimdAddAcc                    0      0.00%     76.32% # Class of executed instruction
system.cpu1.op_class::SimdAlu                       0      0.00%     76.32% # Class of executed instruction
system.cpu1.op_class::SimdCmp                       0      0.00%     76.32% # Class of executed instruction
system.cpu1.op_class::SimdCvt                       0      0.00%     76.32% # Class of executed instruction
system.cpu1.op_class::SimdMisc                      0      0.00%     76.32% # Class of executed instruction
system.cpu1.op_class::SimdMult                      0      0.00%     76.32% # Class of executed instruction
system.cpu1.op_class::SimdMultAcc                   0      0.00%     76.32% # Class of executed instruction
system.cpu1.op_class::SimdShift                     0      0.00%     76.32% # Class of executed instruction
system.cpu1.op_class::SimdShiftAcc                  0      0.00%     76.32% # Class of executed instruction
system.cpu1.op_class::SimdSqrt                      0      0.00%     76.32% # Class of executed instruction
system.cpu1.op_class::SimdFloatAdd                  0      0.00%     76.32% # Class of executed instruction
system.cpu1.op_class::SimdFloatAlu                  0      0.00%     76.32% # Class of executed instruction
system.cpu1.op_class::SimdFloatCmp                  0      0.00%     76.32% # Class of executed instruction
system.cpu1.op_class::SimdFloatCvt                  0      0.00%     76.32% # Class of executed instruction
system.cpu1.op_class::SimdFloatDiv                  0      0.00%     76.32% # Class of executed instruction
system.cpu1.op_class::SimdFloatMisc                 0      0.00%     76.32% # Class of executed instruction
system.cpu1.op_class::SimdFloatMult                 0      0.00%     76.32% # Class of executed instruction
system.cpu1.op_class::SimdFloatMultAcc              0      0.00%     76.32% # Class of executed instruction
system.cpu1.op_class::SimdFloatSqrt                 0      0.00%     76.32% # Class of executed instruction
system.cpu1.op_class::MemRead                 2113736     14.72%     91.04% # Class of executed instruction
system.cpu1.op_class::MemWrite                1286608      8.96%    100.00% # Class of executed instruction
system.cpu1.op_class::IprAccess                     0      0.00%    100.00% # Class of executed instruction
system.cpu1.op_class::InstPrefetch                  0      0.00%    100.00% # Class of executed instruction
system.cpu1.op_class::total                  14362397                       # Class of executed instruction
system.cpu2.apic_clk_domain.clock                8000                       # Clock period in ticks
system.cpu2.numCycles                     18447550195                       # number of cpu cycles simulated
system.cpu2.numWorkItemsStarted                     0                       # number of work items this cpu started
system.cpu2.numWorkItemsCompleted                   0                       # number of work items this cpu completed
system.cpu2.kern.inst.arm                           0                       # number of arm instructions executed
system.cpu2.kern.inst.quiesce                       0                       # number of quiesce instructions executed
system.cpu2.committedInsts                    7211055                       # Number of instructions committed
system.cpu2.committedOps                     15338233                       # Number of ops (including micro ops) committed
system.cpu2.num_int_alu_accesses             15012378                       # Number of integer alu accesses
system.cpu2.num_fp_alu_accesses                  1837                       # Number of float alu accesses
system.cpu2.num_func_calls                     407296                       # number of times a function call or return occured
system.cpu2.num_conditional_control_insts      1107047                       # number of instructions that are conditional controls
system.cpu2.num_int_insts                    15012378                       # number of integer instructions
system.cpu2.num_fp_insts                         1837                       # number of float instructions
system.cpu2.num_int_register_reads           30489357                       # number of times the integer registers were read
system.cpu2.num_int_register_writes          12441689                       # number of times the integer registers were written
system.cpu2.num_fp_register_reads                3081                       # number of times the floating registers were read
system.cpu2.num_fp_register_writes               1457                       # number of times the floating registers were written
system.cpu2.num_cc_register_reads             8718826                       # number of times the CC registers were read
system.cpu2.num_cc_register_writes            4624641                       # number of times the CC registers were written
system.cpu2.num_mem_refs                      3616126                       # number of memory refs
system.cpu2.num_load_insts                    2245548                       # Number of load instructions
system.cpu2.num_store_insts                   1370578                       # Number of store instructions
system.cpu2.num_idle_cycles              18374230530.934601                       # Number of idle cycles
system.cpu2.num_busy_cycles              73319664.065401                       # Number of busy cycles
system.cpu2.not_idle_fraction                0.003974                       # Percentage of non-idle cycles
system.cpu2.idle_fraction                    0.996026                       # Percentage of idle cycles
system.cpu2.Branches                          1649886                       # Number of branches fetched
system.cpu2.op_class::No_OpClass               275115      1.79%      1.79% # Class of executed instruction
system.cpu2.op_class::IntAlu                 11317264     73.78%     75.58% # Class of executed instruction
system.cpu2.op_class::IntMult                   29665      0.19%     75.77% # Class of executed instruction
system.cpu2.op_class::IntDiv                    98785      0.64%     76.42% # Class of executed instruction
system.cpu2.op_class::FloatAdd                   1366      0.01%     76.42% # Class of executed instruction
system.cpu2.op_class::FloatCmp                      0      0.00%     76.42% # Class of executed instruction
system.cpu2.op_class::FloatCvt                      0      0.00%     76.42% # Class of executed instruction
system.cpu2.op_class::FloatMult                     0      0.00%     76.42% # Class of executed instruction
system.cpu2.op_class::FloatDiv                      0      0.00%     76.42% # Class of executed instruction
system.cpu2.op_class::FloatSqrt                     0      0.00%     76.42% # Class of executed instruction
system.cpu2.op_class::SimdAdd                       0      0.00%     76.42% # Class of executed instruction
system.cpu2.op_class::SimdAddAcc                    0      0.00%     76.42% # Class of executed instruction
system.cpu2.op_class::SimdAlu                       0      0.00%     76.42% # Class of executed instruction
system.cpu2.op_class::SimdCmp                       0      0.00%     76.42% # Class of executed instruction
system.cpu2.op_class::SimdCvt                       0      0.00%     76.42% # Class of executed instruction
system.cpu2.op_class::SimdMisc                      0      0.00%     76.42% # Class of executed instruction
system.cpu2.op_class::SimdMult                      0      0.00%     76.42% # Class of executed instruction
system.cpu2.op_class::SimdMultAcc                   0      0.00%     76.42% # Class of executed instruction
system.cpu2.op_class::SimdShift                     0      0.00%     76.42% # Class of executed instruction
system.cpu2.op_class::SimdShiftAcc                  0      0.00%     76.42% # Class of executed instruction
system.cpu2.op_class::SimdSqrt                      0      0.00%     76.42% # Class of executed instruction
system.cpu2.op_class::SimdFloatAdd                  0      0.00%     76.42% # Class of executed instruction
system.cpu2.op_class::SimdFloatAlu                  0      0.00%     76.42% # Class of executed instruction
system.cpu2.op_class::SimdFloatCmp                  0      0.00%     76.42% # Class of executed instruction
system.cpu2.op_class::SimdFloatCvt                  0      0.00%     76.42% # Class of executed instruction
system.cpu2.op_class::SimdFloatDiv                  0      0.00%     76.42% # Class of executed instruction
system.cpu2.op_class::SimdFloatMisc                 0      0.00%     76.42% # Class of executed instruction
system.cpu2.op_class::SimdFloatMult                 0      0.00%     76.42% # Class of executed instruction
system.cpu2.op_class::SimdFloatMultAcc              0      0.00%     76.42% # Class of executed instruction
system.cpu2.op_class::SimdFloatSqrt                 0      0.00%     76.42% # Class of executed instruction
system.cpu2.op_class::MemRead                 2245548     14.64%     91.06% # Class of executed instruction
system.cpu2.op_class::MemWrite                1370578      8.94%    100.00% # Class of executed instruction
system.cpu2.op_class::IprAccess                     0      0.00%    100.00% # Class of executed instruction
system.cpu2.op_class::InstPrefetch                  0      0.00%    100.00% # Class of executed instruction
system.cpu2.op_class::total                  15338321                       # Class of executed instruction
system.cpu3.apic_clk_domain.clock                8000                       # Clock period in ticks
system.cpu3.numCycles                     18447647726                       # number of cpu cycles simulated
system.cpu3.numWorkItemsStarted                     0                       # number of work items this cpu started
system.cpu3.numWorkItemsCompleted                   0                       # number of work items this cpu completed
system.cpu3.kern.inst.arm                           0                       # number of arm instructions executed
system.cpu3.kern.inst.quiesce                       0                       # number of quiesce instructions executed
system.cpu3.committedInsts                   23056902                       # Number of instructions committed
system.cpu3.committedOps                     42229754                       # Number of ops (including micro ops) committed
system.cpu3.num_int_alu_accesses             36653308                       # Number of integer alu accesses
system.cpu3.num_fp_alu_accesses               8399271                       # Number of float alu accesses
system.cpu3.num_func_calls                     809537                       # number of times a function call or return occured
system.cpu3.num_conditional_control_insts      2615418                       # number of instructions that are conditional controls
system.cpu3.num_int_insts                    36653308                       # number of integer instructions
system.cpu3.num_fp_insts                      8399271                       # number of float instructions
system.cpu3.num_int_register_reads           71545950                       # number of times the integer registers were read
system.cpu3.num_int_register_writes          28447669                       # number of times the integer registers were written
system.cpu3.num_fp_register_reads            14064247                       # number of times the floating registers were read
system.cpu3.num_fp_register_writes            7474237                       # number of times the floating registers were written
system.cpu3.num_cc_register_reads            18543781                       # number of times the CC registers were read
system.cpu3.num_cc_register_writes           12664949                       # number of times the CC registers were written
system.cpu3.num_mem_refs                      9571235                       # number of memory refs
system.cpu3.num_load_insts                    6894884                       # Number of load instructions
system.cpu3.num_store_insts                   2676351                       # Number of store instructions
system.cpu3.num_idle_cycles              18304872225.734272                       # Number of idle cycles
system.cpu3.num_busy_cycles              142775500.265729                       # Number of busy cycles
system.cpu3.not_idle_fraction                0.007739                       # Percentage of non-idle cycles
system.cpu3.idle_fraction                    0.992261                       # Percentage of idle cycles
system.cpu3.Branches                          3650040                       # Number of branches fetched
system.cpu3.op_class::No_OpClass               281928      0.67%      0.67% # Class of executed instruction
system.cpu3.op_class::IntAlu                 28428370     67.32%     67.99% # Class of executed instruction
system.cpu3.op_class::IntMult                  229903      0.54%     68.53% # Class of executed instruction
system.cpu3.op_class::IntDiv                   100165      0.24%     68.77% # Class of executed instruction
system.cpu3.op_class::FloatAdd                3618197      8.57%     77.34% # Class of executed instruction
system.cpu3.op_class::FloatCmp                      0      0.00%     77.34% # Class of executed instruction
system.cpu3.op_class::FloatCvt                      0      0.00%     77.34% # Class of executed instruction
system.cpu3.op_class::FloatMult                     0      0.00%     77.34% # Class of executed instruction
system.cpu3.op_class::FloatDiv                      0      0.00%     77.34% # Class of executed instruction
system.cpu3.op_class::FloatSqrt                     0      0.00%     77.34% # Class of executed instruction
system.cpu3.op_class::SimdAdd                       0      0.00%     77.34% # Class of executed instruction
system.cpu3.op_class::SimdAddAcc                    0      0.00%     77.34% # Class of executed instruction
system.cpu3.op_class::SimdAlu                       0      0.00%     77.34% # Class of executed instruction
system.cpu3.op_class::SimdCmp                       0      0.00%     77.34% # Class of executed instruction
system.cpu3.op_class::SimdCvt                       0      0.00%     77.34% # Class of executed instruction
system.cpu3.op_class::SimdMisc                      0      0.00%     77.34% # Class of executed instruction
system.cpu3.op_class::SimdMult                      0      0.00%     77.34% # Class of executed instruction
system.cpu3.op_class::SimdMultAcc                   0      0.00%     77.34% # Class of executed instruction
system.cpu3.op_class::SimdShift                     0      0.00%     77.34% # Class of executed instruction
system.cpu3.op_class::SimdShiftAcc                  0      0.00%     77.34% # Class of executed instruction
system.cpu3.op_class::SimdSqrt                      0      0.00%     77.34% # Class of executed instruction
system.cpu3.op_class::SimdFloatAdd                  0      0.00%     77.34% # Class of executed instruction
system.cpu3.op_class::SimdFloatAlu                  0      0.00%     77.34% # Class of executed instruction
system.cpu3.op_class::SimdFloatCmp                  0      0.00%     77.34% # Class of executed instruction
system.cpu3.op_class::SimdFloatCvt                  0      0.00%     77.34% # Class of executed instruction
system.cpu3.op_class::SimdFloatDiv                  0      0.00%     77.34% # Class of executed instruction
system.cpu3.op_class::SimdFloatMisc                 0      0.00%     77.34% # Class of executed instruction
system.cpu3.op_class::SimdFloatMult                 0      0.00%     77.34% # Class of executed instruction
system.cpu3.op_class::SimdFloatMultAcc              0      0.00%     77.34% # Class of executed instruction
system.cpu3.op_class::SimdFloatSqrt                 0      0.00%     77.34% # Class of executed instruction
system.cpu3.op_class::MemRead                 6894884     16.33%     93.66% # Class of executed instruction
system.cpu3.op_class::MemWrite                2676351      6.34%    100.00% # Class of executed instruction
system.cpu3.op_class::IprAccess                     0      0.00%    100.00% # Class of executed instruction
system.cpu3.op_class::InstPrefetch                  0      0.00%    100.00% # Class of executed instruction
system.cpu3.op_class::total                  42229798                       # Class of executed instruction
system.iobus.trans_dist::ReadReq                  113                       # Transaction distribution
system.iobus.trans_dist::ReadResp                 113                       # Transaction distribution
system.iobus.trans_dist::WriteReq                9354                       # Transaction distribution
system.iobus.trans_dist::WriteResp               9354                       # Transaction distribution
system.iobus.trans_dist::MessageReq                19                       # Transaction distribution
system.iobus.trans_dist::MessageResp               19                       # Transaction distribution
system.iobus.pkt_count_system.pc.south_bridge.io_apic.int_master::system.ruby.l1_cntrl0.sequencer.pio-slave-port            4                       # Packet count per connected master and slave (bytes)
system.iobus.pkt_count_system.pc.south_bridge.io_apic.int_master::system.ruby.l1_cntrl1.sequencer.pio-slave-port            4                       # Packet count per connected master and slave (bytes)
system.iobus.pkt_count_system.pc.south_bridge.io_apic.int_master::system.ruby.l1_cntrl2.sequencer.pio-slave-port            4                       # Packet count per connected master and slave (bytes)
system.iobus.pkt_count_system.pc.south_bridge.io_apic.int_master::system.ruby.l1_cntrl3.sequencer.pio-slave-port            4                       # Packet count per connected master and slave (bytes)
system.iobus.pkt_count_system.pc.south_bridge.io_apic.int_master::total           16                       # Packet count per connected master and slave (bytes)
system.iobus.pkt_count_system.ruby.l1_cntrl0.sequencer.mem-master-port::system.pc.south_bridge.ide.pio           12                       # Packet count per connected master and slave (bytes)
system.iobus.pkt_count_system.ruby.l1_cntrl0.sequencer.mem-master-port::system.pc.south_bridge.io_apic.pio            8                       # Packet count per connected master and slave (bytes)
system.iobus.pkt_count_system.ruby.l1_cntrl0.sequencer.mem-master-port::system.ruby.l1_cntrl0.sequencer.pio-slave-port         4644                       # Packet count per connected master and slave (bytes)
system.iobus.pkt_count_system.ruby.l1_cntrl0.sequencer.mem-master-port::system.ruby.l1_cntrl1.sequencer.pio-slave-port            6                       # Packet count per connected master and slave (bytes)
system.iobus.pkt_count_system.ruby.l1_cntrl0.sequencer.mem-master-port::system.ruby.l1_cntrl2.sequencer.pio-slave-port            2                       # Packet count per connected master and slave (bytes)
system.iobus.pkt_count_system.ruby.l1_cntrl0.sequencer.mem-master-port::system.ruby.l1_cntrl3.sequencer.pio-slave-port            4                       # Packet count per connected master and slave (bytes)
system.iobus.pkt_count_system.ruby.l1_cntrl0.sequencer.mem-master-port::total         4676                       # Packet count per connected master and slave (bytes)
system.iobus.pkt_count_system.ruby.l1_cntrl1.sequencer.mem-master-port::system.pc.south_bridge.ide.pio           80                       # Packet count per connected master and slave (bytes)
system.iobus.pkt_count_system.ruby.l1_cntrl1.sequencer.mem-master-port::system.pc.south_bridge.io_apic.pio            8                       # Packet count per connected master and slave (bytes)
system.iobus.pkt_count_system.ruby.l1_cntrl1.sequencer.mem-master-port::system.pc.com_1.pio            2                       # Packet count per connected master and slave (bytes)
system.iobus.pkt_count_system.ruby.l1_cntrl1.sequencer.mem-master-port::system.ruby.l1_cntrl1.sequencer.pio-slave-port         4632                       # Packet count per connected master and slave (bytes)
system.iobus.pkt_count_system.ruby.l1_cntrl1.sequencer.mem-master-port::system.ruby.l1_cntrl2.sequencer.pio-slave-port            2                       # Packet count per connected master and slave (bytes)
system.iobus.pkt_count_system.ruby.l1_cntrl1.sequencer.mem-master-port::total         4724                       # Packet count per connected master and slave (bytes)
system.iobus.pkt_count_system.ruby.l1_cntrl2.sequencer.mem-master-port::system.pc.south_bridge.ide.pio           46                       # Packet count per connected master and slave (bytes)
system.iobus.pkt_count_system.ruby.l1_cntrl2.sequencer.mem-master-port::system.pc.south_bridge.io_apic.pio            6                       # Packet count per connected master and slave (bytes)
system.iobus.pkt_count_system.ruby.l1_cntrl2.sequencer.mem-master-port::system.pc.com_1.pio          174                       # Packet count per connected master and slave (bytes)
system.iobus.pkt_count_system.ruby.l1_cntrl2.sequencer.mem-master-port::system.ruby.l1_cntrl1.sequencer.pio-slave-port            2                       # Packet count per connected master and slave (bytes)
system.iobus.pkt_count_system.ruby.l1_cntrl2.sequencer.mem-master-port::system.ruby.l1_cntrl2.sequencer.pio-slave-port         4632                       # Packet count per connected master and slave (bytes)
system.iobus.pkt_count_system.ruby.l1_cntrl2.sequencer.mem-master-port::system.ruby.l1_cntrl3.sequencer.pio-slave-port            2                       # Packet count per connected master and slave (bytes)
system.iobus.pkt_count_system.ruby.l1_cntrl2.sequencer.mem-master-port::total         4862                       # Packet count per connected master and slave (bytes)
system.iobus.pkt_count_system.ruby.l1_cntrl3.sequencer.mem-master-port::system.pc.south_bridge.ide.pio           46                       # Packet count per connected master and slave (bytes)
system.iobus.pkt_count_system.ruby.l1_cntrl3.sequencer.mem-master-port::system.pc.south_bridge.io_apic.pio            8                       # Packet count per connected master and slave (bytes)
system.iobus.pkt_count_system.ruby.l1_cntrl3.sequencer.mem-master-port::system.ruby.l1_cntrl0.sequencer.pio-slave-port            2                       # Packet count per connected master and slave (bytes)
system.iobus.pkt_count_system.ruby.l1_cntrl3.sequencer.mem-master-port::system.ruby.l1_cntrl1.sequencer.pio-slave-port            2                       # Packet count per connected master and slave (bytes)
system.iobus.pkt_count_system.ruby.l1_cntrl3.sequencer.mem-master-port::system.ruby.l1_cntrl3.sequencer.pio-slave-port         4636                       # Packet count per connected master and slave (bytes)
system.iobus.pkt_count_system.ruby.l1_cntrl3.sequencer.mem-master-port::total         4694                       # Packet count per connected master and slave (bytes)
system.iobus.pkt_count::total                   18972                       # Packet count per connected master and slave (bytes)
system.iobus.pkt_size_system.pc.south_bridge.io_apic.int_master::system.ruby.l1_cntrl0.sequencer.pio-slave-port            8                       # Cumulative packet size per connected master and slave (bytes)
system.iobus.pkt_size_system.pc.south_bridge.io_apic.int_master::system.ruby.l1_cntrl1.sequencer.pio-slave-port            8                       # Cumulative packet size per connected master and slave (bytes)
system.iobus.pkt_size_system.pc.south_bridge.io_apic.int_master::system.ruby.l1_cntrl2.sequencer.pio-slave-port            8                       # Cumulative packet size per connected master and slave (bytes)
system.iobus.pkt_size_system.pc.south_bridge.io_apic.int_master::system.ruby.l1_cntrl3.sequencer.pio-slave-port            8                       # Cumulative packet size per connected master and slave (bytes)
system.iobus.pkt_size_system.pc.south_bridge.io_apic.int_master::total           32                       # Cumulative packet size per connected master and slave (bytes)
system.iobus.pkt_size_system.ruby.l1_cntrl0.sequencer.mem-master-port::system.pc.south_bridge.ide.pio            6                       # Cumulative packet size per connected master and slave (bytes)
system.iobus.pkt_size_system.ruby.l1_cntrl0.sequencer.mem-master-port::system.pc.south_bridge.io_apic.pio           16                       # Cumulative packet size per connected master and slave (bytes)
system.iobus.pkt_size_system.ruby.l1_cntrl0.sequencer.mem-master-port::system.ruby.l1_cntrl0.sequencer.pio-slave-port         9288                       # Cumulative packet size per connected master and slave (bytes)
system.iobus.pkt_size_system.ruby.l1_cntrl0.sequencer.mem-master-port::system.ruby.l1_cntrl1.sequencer.pio-slave-port           12                       # Cumulative packet size per connected master and slave (bytes)
system.iobus.pkt_size_system.ruby.l1_cntrl0.sequencer.mem-master-port::system.ruby.l1_cntrl2.sequencer.pio-slave-port            4                       # Cumulative packet size per connected master and slave (bytes)
system.iobus.pkt_size_system.ruby.l1_cntrl0.sequencer.mem-master-port::system.ruby.l1_cntrl3.sequencer.pio-slave-port            8                       # Cumulative packet size per connected master and slave (bytes)
system.iobus.pkt_size_system.ruby.l1_cntrl0.sequencer.mem-master-port::total         9334                       # Cumulative packet size per connected master and slave (bytes)
system.iobus.pkt_size_system.ruby.l1_cntrl1.sequencer.mem-master-port::system.pc.south_bridge.ide.pio           46                       # Cumulative packet size per connected master and slave (bytes)
system.iobus.pkt_size_system.ruby.l1_cntrl1.sequencer.mem-master-port::system.pc.south_bridge.io_apic.pio           16                       # Cumulative packet size per connected master and slave (bytes)
system.iobus.pkt_size_system.ruby.l1_cntrl1.sequencer.mem-master-port::system.pc.com_1.pio            1                       # Cumulative packet size per connected master and slave (bytes)
system.iobus.pkt_size_system.ruby.l1_cntrl1.sequencer.mem-master-port::system.ruby.l1_cntrl1.sequencer.pio-slave-port         9264                       # Cumulative packet size per connected master and slave (bytes)
system.iobus.pkt_size_system.ruby.l1_cntrl1.sequencer.mem-master-port::system.ruby.l1_cntrl2.sequencer.pio-slave-port            4                       # Cumulative packet size per connected master and slave (bytes)
system.iobus.pkt_size_system.ruby.l1_cntrl1.sequencer.mem-master-port::total         9331                       # Cumulative packet size per connected master and slave (bytes)
system.iobus.pkt_size_system.ruby.l1_cntrl2.sequencer.mem-master-port::system.pc.south_bridge.ide.pio           26                       # Cumulative packet size per connected master and slave (bytes)
system.iobus.pkt_size_system.ruby.l1_cntrl2.sequencer.mem-master-port::system.pc.south_bridge.io_apic.pio           12                       # Cumulative packet size per connected master and slave (bytes)
system.iobus.pkt_size_system.ruby.l1_cntrl2.sequencer.mem-master-port::system.pc.com_1.pio           87                       # Cumulative packet size per connected master and slave (bytes)
system.iobus.pkt_size_system.ruby.l1_cntrl2.sequencer.mem-master-port::system.ruby.l1_cntrl1.sequencer.pio-slave-port            4                       # Cumulative packet size per connected master and slave (bytes)
system.iobus.pkt_size_system.ruby.l1_cntrl2.sequencer.mem-master-port::system.ruby.l1_cntrl2.sequencer.pio-slave-port         9264                       # Cumulative packet size per connected master and slave (bytes)
system.iobus.pkt_size_system.ruby.l1_cntrl2.sequencer.mem-master-port::system.ruby.l1_cntrl3.sequencer.pio-slave-port            4                       # Cumulative packet size per connected master and slave (bytes)
system.iobus.pkt_size_system.ruby.l1_cntrl2.sequencer.mem-master-port::total         9397                       # Cumulative packet size per connected master and slave (bytes)
system.iobus.pkt_size_system.ruby.l1_cntrl3.sequencer.mem-master-port::system.pc.south_bridge.ide.pio           26                       # Cumulative packet size per connected master and slave (bytes)
system.iobus.pkt_size_system.ruby.l1_cntrl3.sequencer.mem-master-port::system.pc.south_bridge.io_apic.pio           16                       # Cumulative packet size per connected master and slave (bytes)
system.iobus.pkt_size_system.ruby.l1_cntrl3.sequencer.mem-master-port::system.ruby.l1_cntrl0.sequencer.pio-slave-port            4                       # Cumulative packet size per connected master and slave (bytes)
system.iobus.pkt_size_system.ruby.l1_cntrl3.sequencer.mem-master-port::system.ruby.l1_cntrl1.sequencer.pio-slave-port            4                       # Cumulative packet size per connected master and slave (bytes)
system.iobus.pkt_size_system.ruby.l1_cntrl3.sequencer.mem-master-port::system.ruby.l1_cntrl3.sequencer.pio-slave-port         9272                       # Cumulative packet size per connected master and slave (bytes)
system.iobus.pkt_size_system.ruby.l1_cntrl3.sequencer.mem-master-port::total         9322                       # Cumulative packet size per connected master and slave (bytes)
system.iobus.pkt_size::total                    37416                       # Cumulative packet size per connected master and slave (bytes)
system.iobus.reqLayer2.occupancy               171000                       # Layer occupancy (ticks)
system.iobus.reqLayer2.utilization                0.0                       # Layer utilization (%)
system.iobus.reqLayer8.occupancy                26496                       # Layer occupancy (ticks)
system.iobus.reqLayer8.utilization                0.0                       # Layer utilization (%)
system.iobus.reqLayer12.occupancy              115000                       # Layer occupancy (ticks)
system.iobus.reqLayer12.utilization               0.0                       # Layer utilization (%)
system.iobus.reqLayer17.occupancy             5221478                       # Layer occupancy (ticks)
system.iobus.reqLayer17.utilization               0.0                       # Layer utilization (%)
system.iobus.reqLayer18.occupancy             5213498                       # Layer occupancy (ticks)
system.iobus.reqLayer18.utilization               0.0                       # Layer utilization (%)
system.iobus.reqLayer19.occupancy             5337496                       # Layer occupancy (ticks)
system.iobus.reqLayer19.utilization               0.0                       # Layer utilization (%)
system.iobus.reqLayer20.occupancy             5488493                       # Layer occupancy (ticks)
system.iobus.reqLayer20.utilization               0.0                       # Layer utilization (%)
system.iobus.respLayer0.occupancy               10996                       # Layer occupancy (ticks)
system.iobus.respLayer0.utilization               0.0                       # Layer utilization (%)
system.iobus.respLayer2.occupancy             3510000                       # Layer occupancy (ticks)
system.iobus.respLayer2.utilization               0.0                       # Layer utilization (%)
system.iobus.respLayer4.occupancy             3535000                       # Layer occupancy (ticks)
system.iobus.respLayer4.utilization               0.0                       # Layer utilization (%)
system.iobus.respLayer6.occupancy             3665500                       # Layer occupancy (ticks)
system.iobus.respLayer6.utilization               0.0                       # Layer utilization (%)
system.iobus.respLayer8.occupancy             3518000                       # Layer occupancy (ticks)
system.iobus.respLayer8.utilization               0.0                       # Layer utilization (%)
system.pc.south_bridge.ide.disks.dma_read_full_pages            1                       # Number of full page size DMA reads (not PRD).
system.pc.south_bridge.ide.disks.dma_read_bytes         4096                       # Number of bytes transfered via DMA reads (not PRD).
system.pc.south_bridge.ide.disks.dma_read_txs            1                       # Number of DMA read transactions (not PRD).
system.pc.south_bridge.ide.disks.dma_write_full_pages           45                       # Number of full page size DMA writes.
system.pc.south_bridge.ide.disks.dma_write_bytes       184320                       # Number of bytes transfered via DMA writes.
system.pc.south_bridge.ide.disks.dma_write_txs           45                       # Number of DMA write transactions.
system.ruby.clk_domain.clock                      500                       # Clock period in ticks
system.ruby.delayHist::bucket_size                  2                       # delay histogram for all message
system.ruby.delayHist::max_bucket                  19                       # delay histogram for all message
system.ruby.delayHist::samples               27365492                       # delay histogram for all message
system.ruby.delayHist::mean                  0.001494                       # delay histogram for all message
system.ruby.delayHist::stdev                 0.078891                       # delay histogram for all message
[...]
system.ruby.LD.Directory.miss_type_mach_latency_hist_seqr |     6662892     84.70%     84.70% |      655467      8.33%     93.03% |      386018      4.91%     97.94% |       85565      1.09%     99.02% |       57242      0.73%     99.75% |       16142      0.21%     99.96% |        1717      0.02%     99.98% |        1491      0.02%    100.00% |         203      0.00%    100.00% |           1      0.00%    100.00%
system.ruby.LD.Directory.miss_type_mach_latency_hist_seqr::total      7866738                      
system.ruby.ST.L1Cache.miss_type_mach_latency_hist_seqr::bucket_size            8                      
system.ruby.ST.L1Cache.miss_type_mach_latency_hist_seqr::max_bucket           79                      
system.ruby.ST.L1Cache.miss_type_mach_latency_hist_seqr::samples         9552                      
system.ruby.ST.L1Cache.miss_type_mach_latency_hist_seqr::mean    46.846420                      
system.ruby.ST.L1Cache.miss_type_mach_latency_hist_seqr::gmean    46.843182                      
system.ruby.ST.L1Cache.miss_type_mach_latency_hist_seqr::stdev     0.544501                      
system.ruby.ST.L1Cache.miss_type_mach_latency_hist_seqr |           0      0.00%      0.00% |           0      0.00%      0.00% |           0      0.00%      0.00% |           0      0.00%      0.00% |           0      0.00%      0.00% |        9534     99.81%     99.81% |          18      0.19%    100.00% |           0      0.00%    100.00% |           0      0.00%    100.00% |           0      0.00%    100.00%
system.ruby.ST.L1Cache.miss_type_mach_latency_hist_seqr::total         9552                      
system.ruby.ST.Directory.miss_type_mach_latency_hist_seqr::bucket_size          128                      
system.ruby.ST.Directory.miss_type_mach_latency_hist_seqr::max_bucket         1279                      
system.ruby.ST.Directory.miss_type_mach_latency_hist_seqr::samples      6568669                      
system.ruby.ST.Directory.miss_type_mach_latency_hist_seqr::mean   119.612150                      
system.ruby.ST.Directory.miss_type_mach_latency_hist_seqr::gmean   108.341402                      
system.ruby.ST.Directory.miss_type_mach_latency_hist_seqr::stdev    75.963441                      
system.ruby.ST.Directory.miss_type_mach_latency_hist_seqr |     5837355     88.87%     88.87% |      309405      4.71%     93.58% |      293158      4.46%     98.04% |       63693      0.97%     99.01% |       48640      0.74%     99.75% |       13520      0.21%     99.96% |        1420      0.02%     99.98% |        1296      0.02%    100.00% |         176      0.00%    100.00% |           6      0.00%    100.00%
system.ruby.ST.Directory.miss_type_mach_latency_hist_seqr::total      6568669                      
system.ruby.IFETCH.L1Cache.miss_type_mach_latency_hist_seqr::bucket_size           64                      
system.ruby.IFETCH.L1Cache.miss_type_mach_latency_hist_seqr::max_bucket          639                      
system.ruby.IFETCH.L1Cache.miss_type_mach_latency_hist_seqr::samples      4695309                      
system.ruby.IFETCH.L1Cache.miss_type_mach_latency_hist_seqr::mean    45.226411                      
system.ruby.IFETCH.L1Cache.miss_type_mach_latency_hist_seqr::gmean    45.221217                      
system.ruby.IFETCH.L1Cache.miss_type_mach_latency_hist_seqr::stdev     0.808889                      
system.ruby.IFETCH.L1Cache.miss_type_mach_latency_hist_seqr |     4695229    100.00%    100.00% |          56      0.00%    100.00% |          15      0.00%    100.00% |           4      0.00%    100.00% |           3      0.00%    100.00% |           0      0.00%    100.00% |           1      0.00%    100.00% |           0      0.00%    100.00% |           0      0.00%    100.00% |           1      0.00%    100.00%
system.ruby.IFETCH.L1Cache.miss_type_mach_latency_hist_seqr::total      4695309                      
system.ruby.IFETCH.Directory.miss_type_mach_latency_hist_seqr::bucket_size          128                      
system.ruby.IFETCH.Directory.miss_type_mach_latency_hist_seqr::max_bucket         1279                      
system.ruby.IFETCH.Directory.miss_type_mach_latency_hist_seqr::samples      7765828                      
system.ruby.IFETCH.Directory.miss_type_mach_latency_hist_seqr::mean   116.832376                      
system.ruby.IFETCH.Directory.miss_type_mach_latency_hist_seqr::gmean   105.798561                      
system.ruby.IFETCH.Directory.miss_type_mach_latency_hist_seqr::stdev    70.701522                      
system.ruby.IFETCH.Directory.miss_type_mach_latency_hist_seqr |     6686685     86.10%     86.10% |      660776      8.51%     94.61% |      316172      4.07%     98.68% |       33314      0.43%     99.11% |       50548      0.65%     99.76% |       15550      0.20%     99.96% |        1594      0.02%     99.98% |        1079      0.01%    100.00% |         108      0.00%    100.00% |           2      0.00%    100.00%
system.ruby.IFETCH.Directory.miss_type_mach_latency_hist_seqr::total      7765828                      
system.ruby.RMW_Read.L1Cache.miss_type_mach_latency_hist_seqr::bucket_size            8                      
system.ruby.RMW_Read.L1Cache.miss_type_mach_latency_hist_seqr::max_bucket           79                      
system.ruby.RMW_Read.L1Cache.miss_type_mach_latency_hist_seqr::samples         5056                      
system.ruby.RMW_Read.L1Cache.miss_type_mach_latency_hist_seqr::mean    45.882318                      
system.ruby.RMW_Read.L1Cache.miss_type_mach_latency_hist_seqr::gmean    45.871561                      
system.ruby.RMW_Read.L1Cache.miss_type_mach_latency_hist_seqr::stdev     0.995438                      
system.ruby.RMW_Read.L1Cache.miss_type_mach_latency_hist_seqr |           0      0.00%      0.00% |           0      0.00%      0.00% |           0      0.00%      0.00% |           0      0.00%      0.00% |           0      0.00%      0.00% |        5054     99.96%     99.96% |           2      0.04%    100.00% |           0      0.00%    100.00% |           0      0.00%    100.00% |           0      0.00%    100.00%
system.ruby.RMW_Read.L1Cache.miss_type_mach_latency_hist_seqr::total         5056                      
system.ruby.RMW_Read.Directory.miss_type_mach_latency_hist_seqr::bucket_size          128                      
system.ruby.RMW_Read.Directory.miss_type_mach_latency_hist_seqr::max_bucket         1279                      
system.ruby.RMW_Read.Directory.miss_type_mach_latency_hist_seqr::samples        41009                      
system.ruby.RMW_Read.Directory.miss_type_mach_latency_hist_seqr::mean   131.984296                      
system.ruby.RMW_Read.Directory.miss_type_mach_latency_hist_seqr::gmean   120.227929                      
system.ruby.RMW_Read.Directory.miss_type_mach_latency_hist_seqr::stdev    74.651990                      
system.ruby.RMW_Read.Directory.miss_type_mach_latency_hist_seqr |       31676     77.24%     77.24% |        6572     16.03%     93.27% |        2079      5.07%     98.34% |         284      0.69%     99.03% |         285      0.69%     99.72% |          99      0.24%     99.97% |           8      0.02%     99.99% |           6      0.01%    100.00% |           0      0.00%    100.00% |           0      0.00%    100.00%
system.ruby.RMW_Read.Directory.miss_type_mach_latency_hist_seqr::total        41009                      
system.ruby.Locked_RMW_Read.L1Cache.miss_type_mach_latency_hist_seqr::bucket_size            8                      
system.ruby.Locked_RMW_Read.L1Cache.miss_type_mach_latency_hist_seqr::max_bucket           79                      
system.ruby.Locked_RMW_Read.L1Cache.miss_type_mach_latency_hist_seqr::samples         6433                      
system.ruby.Locked_RMW_Read.L1Cache.miss_type_mach_latency_hist_seqr::mean    45.794497                      
system.ruby.Locked_RMW_Read.L1Cache.miss_type_mach_latency_hist_seqr::gmean    45.783697                      
system.ruby.Locked_RMW_Read.L1Cache.miss_type_mach_latency_hist_seqr::stdev     1.000492                      
system.ruby.Locked_RMW_Read.L1Cache.miss_type_mach_latency_hist_seqr |           0      0.00%      0.00% |           0      0.00%      0.00% |           0      0.00%      0.00% |           0      0.00%      0.00% |           0      0.00%      0.00% |        6421     99.81%     99.81% |          11      0.17%     99.98% |           1      0.02%    100.00% |           0      0.00%    100.00% |           0      0.00%    100.00%
system.ruby.Locked_RMW_Read.L1Cache.miss_type_mach_latency_hist_seqr::total         6433                      
system.ruby.Locked_RMW_Read.Directory.miss_type_mach_latency_hist_seqr::bucket_size          128                      
system.ruby.Locked_RMW_Read.Directory.miss_type_mach_latency_hist_seqr::max_bucket         1279                      
system.ruby.Locked_RMW_Read.Directory.miss_type_mach_latency_hist_seqr::samples        30015                      
system.ruby.Locked_RMW_Read.Directory.miss_type_mach_latency_hist_seqr::mean   114.732600                      
system.ruby.Locked_RMW_Read.Directory.miss_type_mach_latency_hist_seqr::gmean    95.631411                      
system.ruby.Locked_RMW_Read.Directory.miss_type_mach_latency_hist_seqr::stdev    76.771444                      
system.ruby.Locked_RMW_Read.Directory.miss_type_mach_latency_hist_seqr |       20457     68.16%     68.16% |        8089     26.95%     95.11% |        1096      3.65%     98.76% |         149      0.50%     99.25% |         171      0.57%     99.82% |          44      0.15%     99.97% |           6      0.02%     99.99% |           3      0.01%    100.00% |           0      0.00%    100.00% |           0      0.00%    100.00%
system.ruby.Locked_RMW_Read.Directory.miss_type_mach_latency_hist_seqr::total        30015                      
system.ruby.Directory_Controller.GETX        14087597      0.00%      0.00%
system.ruby.Directory_Controller.PUTX        11273487      0.00%      0.00%
system.ruby.Directory_Controller.PUTX_NotOwner           10      0.00%      0.00%
system.ruby.Directory_Controller.DMA_READ          160      0.00%      0.00%
system.ruby.Directory_Controller.DMA_WRITE         6016      0.00%      0.00%
system.ruby.Directory_Controller.Memory_Data     11274311      0.00%      0.00%
system.ruby.Directory_Controller.Memory_Ack     11279503      0.00%      0.00%
system.ruby.Directory_Controller.I.GETX      11274164      0.00%      0.00%
system.ruby.Directory_Controller.I.DMA_READ          147      0.00%      0.00%
system.ruby.Directory_Controller.I.DMA_WRITE         6016      0.00%      0.00%
system.ruby.Directory_Controller.M.GETX       2812740      0.00%      0.00%
system.ruby.Directory_Controller.M.PUTX      11273474      0.00%      0.00%
system.ruby.Directory_Controller.M.PUTX_NotOwner           10      0.00%      0.00%
system.ruby.Directory_Controller.M.DMA_READ           13      0.00%      0.00%
system.ruby.Directory_Controller.M_DRD.PUTX           13      0.00%      0.00%
system.ruby.Directory_Controller.M_DRDI.Memory_Ack           13      0.00%      0.00%
system.ruby.Directory_Controller.IM.GETX          688      0.00%      0.00%
system.ruby.Directory_Controller.IM.Memory_Data     11274164      0.00%      0.00%
system.ruby.Directory_Controller.MI.GETX            5      0.00%      0.00%
system.ruby.Directory_Controller.MI.Memory_Ack     11273474      0.00%      0.00%
system.ruby.Directory_Controller.ID.Memory_Data          147      0.00%      0.00%
system.ruby.Directory_Controller.ID_W.Memory_Ack         6016      0.00%      0.00%
system.ruby.DMA_Controller.ReadRequest   |         160    100.00%    100.00% |           0      0.00%    100.00%
system.ruby.DMA_Controller.ReadRequest::total          160                      
system.ruby.DMA_Controller.WriteRequest  |        6016    100.00%    100.00% |           0      0.00%    100.00%
system.ruby.DMA_Controller.WriteRequest::total         6016                      
system.ruby.DMA_Controller.Data          |         160    100.00%    100.00% |           0      0.00%    100.00%
system.ruby.DMA_Controller.Data::total            160                      
system.ruby.DMA_Controller.Ack           |        6016    100.00%    100.00% |           0      0.00%    100.00%
system.ruby.DMA_Controller.Ack::total            6016                      
system.ruby.DMA_Controller.READY.ReadRequest |         160    100.00%    100.00% |           0      0.00%    100.00%
system.ruby.DMA_Controller.READY.ReadRequest::total          160                      
system.ruby.DMA_Controller.READY.WriteRequest |        6016    100.00%    100.00% |           0      0.00%    100.00%
system.ruby.DMA_Controller.READY.WriteRequest::total         6016                      
system.ruby.DMA_Controller.BUSY_RD.Data  |         160    100.00%    100.00% |           0      0.00%    100.00%
system.ruby.DMA_Controller.BUSY_RD.Data::total          160                      
system.ruby.DMA_Controller.BUSY_WR.Ack   |        6016    100.00%    100.00% |           0      0.00%    100.00%
system.ruby.DMA_Controller.BUSY_WR.Ack::total         6016                      
system.ruby.L1Cache_Controller.Load      |   567326664     97.90%     97.90% |     2471995      0.43%     98.33% |     2471275      0.43%     98.75% |     7216617      1.25%    100.00%
system.ruby.L1Cache_Controller.Load::total    579486551                      
system.ruby.L1Cache_Controller.Ifetch    |18446744072927389696    100.00%    100.00% |    11581754      0.00%    100.00% |    11492314      0.00%    100.00% |    34762627      0.00%    100.00%
system.ruby.L1Cache_Controller.Ifetch::total 18446744072985225216                      
system.ruby.L1Cache_Controller.Store     |   173102066     96.16%     96.16% |     1814544      1.01%     97.17% |     1805870      1.00%     98.17% |     3285905      1.83%    100.00%
system.ruby.L1Cache_Controller.Store::total    180008385                      
system.ruby.L1Cache_Controller.Data      |    11030523     78.30%     78.30% |      986781      7.00%     85.31% |     1000674      7.10%     92.41% |     1068926      7.59%    100.00%
system.ruby.L1Cache_Controller.Data::total     14086904                      
system.ruby.L1Cache_Controller.Fwd_GETX  |      402464     14.31%     14.31% |      806852     28.69%     42.99% |      810725     28.82%     71.82% |      792699     28.18%    100.00%
system.ruby.L1Cache_Controller.Fwd_GETX::total      2812740                      
system.ruby.L1Cache_Controller.Inv       |           0      0.00%      0.00% |          16     61.54%     61.54% |           2      7.69%     69.23% |           8     30.77%    100.00%
system.ruby.L1Cache_Controller.Inv::total           26                      
system.ruby.L1Cache_Controller.Replacement |    10758493     92.80%     92.80% |      242953      2.10%     94.89% |      254306      2.19%     97.09% |      337569      2.91%    100.00%
system.ruby.L1Cache_Controller.Replacement::total     11593321                      
system.ruby.L1Cache_Controller.Writeback_Ack |    10627548     94.27%     94.27% |      179039      1.59%     95.86% |      189659      1.68%     97.54% |      277241      2.46%    100.00%
system.ruby.L1Cache_Controller.Writeback_Ack::total     11273487                      
system.ruby.L1Cache_Controller.Writeback_Nack |           7     70.00%     70.00% |           0      0.00%     70.00% |           3     30.00%    100.00% |           0      0.00%    100.00%
system.ruby.L1Cache_Controller.Writeback_Nack::total           10                      
system.ruby.L1Cache_Controller.I.Load    |     3778840     86.12%     86.12% |      189528      4.32%     90.44% |      195164      4.45%     94.88% |      224476      5.12%    100.00%
system.ruby.L1Cache_Controller.I.Load::total      4388008                      
system.ruby.L1Cache_Controller.I.Ifetch  |     4026023     63.58%     63.58% |      764871     12.08%     75.66% |      766692     12.11%     87.77% |      774443     12.23%    100.00%
system.ruby.L1Cache_Controller.I.Ifetch::total      6332029                      
system.ruby.L1Cache_Controller.I.Store   |     3225660     95.81%     95.81% |       32382      0.96%     96.77% |       38818      1.15%     97.92% |       70007      2.08%    100.00%
system.ruby.L1Cache_Controller.I.Store::total      3366867                      
system.ruby.L1Cache_Controller.I.Replacement |      130938     40.94%     40.94% |       63922     19.99%     60.92% |       64645     20.21%     81.14% |       60332     18.86%    100.00%
system.ruby.L1Cache_Controller.I.Replacement::total       319837                      
system.ruby.L1Cache_Controller.II.Writeback_Nack |           7     70.00%     70.00% |           0      0.00%     70.00% |           3     30.00%    100.00% |           0      0.00%    100.00%
system.ruby.L1Cache_Controller.II.Writeback_Nack::total           10                      
system.ruby.L1Cache_Controller.M.Load    |   563547824     97.99%     97.99% |     2282467      0.40%     98.39% |     2276111      0.40%     98.78% |     6992141      1.22%    100.00%
system.ruby.L1Cache_Controller.M.Load::total    575098543                      
system.ruby.L1Cache_Controller.M.Ifetch  |18446744072923363328    100.00%    100.00% |    10816883      0.00%    100.00% |    10725622      0.00%    100.00% |    33988184      0.00%    100.00%
system.ruby.L1Cache_Controller.M.Ifetch::total 18446744072978894848                      
system.ruby.L1Cache_Controller.M.Store   |   169876406     96.17%     96.17% |     1782162      1.01%     97.18% |     1767052      1.00%     98.18% |     3215898      1.82%    100.00%
system.ruby.L1Cache_Controller.M.Store::total    176641518                      
system.ruby.L1Cache_Controller.M.Fwd_GETX |      402457     14.31%     14.31% |      806852     28.69%     42.99% |      810722     28.82%     71.82% |      792699     28.18%    100.00%
system.ruby.L1Cache_Controller.M.Fwd_GETX::total      2812730                      
system.ruby.L1Cache_Controller.M.Inv     |           0      0.00%      0.00% |           8     61.54%     61.54% |           1      7.69%     69.23% |           4     30.77%    100.00%
system.ruby.L1Cache_Controller.M.Inv::total           13                      
system.ruby.L1Cache_Controller.M.Replacement |    10627555     94.27%     94.27% |      179031      1.59%     95.86% |      189661      1.68%     97.54% |      277237      2.46%    100.00%
system.ruby.L1Cache_Controller.M.Replacement::total     11273484                      
system.ruby.L1Cache_Controller.MI.Fwd_GETX |           7     70.00%     70.00% |           0      0.00%     70.00% |           3     30.00%    100.00% |           0      0.00%    100.00%
system.ruby.L1Cache_Controller.MI.Fwd_GETX::total           10                      
system.ruby.L1Cache_Controller.MI.Inv    |           0      0.00%      0.00% |           8     61.54%     61.54% |           1      7.69%     69.23% |           4     30.77%    100.00%
system.ruby.L1Cache_Controller.MI.Inv::total           13                      
system.ruby.L1Cache_Controller.MI.Writeback_Ack |    10627548     94.27%     94.27% |      179039      1.59%     95.86% |      189659      1.68%     97.54% |      277241      2.46%    100.00%
system.ruby.L1Cache_Controller.MI.Writeback_Ack::total     11273487                      
system.ruby.L1Cache_Controller.IS.Data   |     7804863     72.81%     72.81% |      954399      8.90%     81.71% |      961856      8.97%     90.68% |      998919      9.32%    100.00%
system.ruby.L1Cache_Controller.IS.Data::total     10720037                      
system.ruby.L1Cache_Controller.IM.Data   |     3225660     95.81%     95.81% |       32382      0.96%     96.77% |       38818      1.15%     97.92% |       70007      2.08%    100.00%
system.ruby.L1Cache_Controller.IM.Data::total      3366867                      

---------- End Simulation Statistics   ----------
