
---------- Begin Simulation Statistics ----------
sim_seconds                                  0.461861                       # Number of seconds simulated
sim_ticks                                461861356500                       # Number of ticks simulated
final_tick                               52708778059501                       # Number of ticks from beginning of simulation (restored from checkpoints and never reset)
sim_freq                                 1000000000000                       # Frequency of simulated ticks
host_inst_rate                                 129396                       # Simulator instruction rate (inst/s)
host_op_rate                                   233529                       # Simulator op (including micro ops) rate (op/s)
host_tick_rate                              222317486                       # Simulator tick rate (ticks/s)
host_mem_usage                                1804508                       # Number of bytes of host memory used
host_seconds                                  2077.49                       # Real time elapsed on the host
sim_insts                                   268818261                       # Number of instructions simulated
sim_ops                                     485153445                       # Number of ops (including micro ops) simulated
system.voltage_domain.voltage                       1                       # Voltage in Volts
system.clk_domain.clock                          1000                       # Clock period in ticks
system.mem_ctrls.bytes_read::ruby.dir_cntrl0       422080                       # Number of bytes read from this memory
system.mem_ctrls.bytes_read::total             422080                       # Number of bytes read from this memory
system.mem_ctrls.bytes_written::ruby.dir_cntrl0       137280                       # Number of bytes written to this memory
system.mem_ctrls.bytes_written::total          137280                       # Number of bytes written to this memory
system.mem_ctrls.num_reads::ruby.dir_cntrl0         6595                       # Number of read requests responded to by this memory
system.mem_ctrls.num_reads::total                6595                       # Number of read requests responded to by this memory
system.mem_ctrls.num_writes::ruby.dir_cntrl0         2145                       # Number of write requests responded to by this memory
system.mem_ctrls.num_writes::total               2145                       # Number of write requests responded to by this memory
system.mem_ctrls.bw_read::ruby.dir_cntrl0       913867                       # Total read bandwidth from this memory (bytes/s)
system.mem_ctrls.bw_read::total                913867                       # Total read bandwidth from this memory (bytes/s)
system.mem_ctrls.bw_write::ruby.dir_cntrl0       297232                       # Write bandwidth from this memory (bytes/s)
system.mem_ctrls.bw_write::total               297232                       # Write bandwidth from this memory (bytes/s)
system.mem_ctrls.bw_total::ruby.dir_cntrl0      1211099                       # Total bandwidth to/from this memory (bytes/s)
system.mem_ctrls.bw_total::total              1211099                       # Total bandwidth to/from this memory (bytes/s)
system.mem_ctrls.readReqs                        6595                       # Number of read requests accepted
system.mem_ctrls.writeReqs                       2145                       # Number of write requests accepted
system.mem_ctrls.readBursts                      6595                       # Number of DRAM read bursts, including those serviced by the write queue
system.mem_ctrls.writeBursts                     2145                       # Number of DRAM write bursts, including those merged in the write queue
system.mem_ctrls.bytesReadDRAM                 420992                       # Total number of bytes read from DRAM
system.mem_ctrls.bytesReadWrQ                    1088                       # Total number of bytes read from write queue
system.mem_ctrls.bytesWritten                  135744                       # Total number of bytes written to DRAM
system.mem_ctrls.bytesReadSys                  422080                       # Total read bytes from the system interface side
system.mem_ctrls.bytesWrittenSys               137280                       # Total written bytes from the system interface side
system.mem_ctrls.servicedByWrQ                     17                       # Number of DRAM read bursts serviced by the write queue
system.mem_ctrls.mergedWrBursts                     0                       # Number of DRAM write bursts merged with an existing one
system.mem_ctrls.neitherReadNorWriteReqs            0                       # Number of requests that are neither read nor write
system.mem_ctrls.perBankRdBursts::0               289                       # Per bank write bursts
system.mem_ctrls.perBankRdBursts::1               486                       # Per bank write bursts
system.mem_ctrls.perBankRdBursts::2               247                       # Per bank write bursts
system.mem_ctrls.perBankRdBursts::3               454                       # Per bank write bursts
system.mem_ctrls.perBankRdBursts::4               324                       # Per bank write bursts
system.mem_ctrls.perBankRdBursts::5               357                       # Per bank write bursts
system.mem_ctrls.perBankRdBursts::6               399                       # Per bank write bursts
system.mem_ctrls.perBankRdBursts::7               338                       # Per bank write bursts
system.mem_ctrls.perBankRdBursts::8               409                       # Per bank write bursts
system.mem_ctrls.perBankRdBursts::9               454                       # Per bank write bursts
system.mem_ctrls.perBankRdBursts::10              330                       # Per bank write bursts
system.mem_ctrls.perBankRdBursts::11              416                       # Per bank write bursts
system.mem_ctrls.perBankRdBursts::12              383                       # Per bank write bursts
system.mem_ctrls.perBankRdBursts::13              547                       # Per bank write bursts
system.mem_ctrls.perBankRdBursts::14              546                       # Per bank write bursts
system.mem_ctrls.perBankRdBursts::15              599                       # Per bank write bursts
system.mem_ctrls.perBankWrBursts::0               129                       # Per bank write bursts
system.mem_ctrls.perBankWrBursts::1               128                       # Per bank write bursts
system.mem_ctrls.perBankWrBursts::2               128                       # Per bank write bursts
system.mem_ctrls.perBankWrBursts::3               256                       # Per bank write bursts
system.mem_ctrls.perBankWrBursts::4               128                       # Per bank write bursts
system.mem_ctrls.perBankWrBursts::5               128                       # Per bank write bursts
system.mem_ctrls.perBankWrBursts::6                65                       # Per bank write bursts
system.mem_ctrls.perBankWrBursts::7               129                       # Per bank write bursts
system.mem_ctrls.perBankWrBursts::8               128                       # Per bank write bursts
system.mem_ctrls.perBankWrBursts::9               128                       # Per bank write bursts
system.mem_ctrls.perBankWrBursts::10              128                       # Per bank write bursts
system.mem_ctrls.perBankWrBursts::11              128                       # Per bank write bursts
system.mem_ctrls.perBankWrBursts::12              128                       # Per bank write bursts
system.mem_ctrls.perBankWrBursts::13              128                       # Per bank write bursts
system.mem_ctrls.perBankWrBursts::14              128                       # Per bank write bursts
system.mem_ctrls.perBankWrBursts::15              134                       # Per bank write bursts
system.mem_ctrls.numRdRetry                         0                       # Number of times read queue was full causing retry
system.mem_ctrls.numWrRetry                         0                       # Number of times write queue was full causing retry
system.mem_ctrls.totGap                  461861291500                       # Total gap between requests
system.mem_ctrls.readPktSize::0                     0                       # Read request sizes (log2)
system.mem_ctrls.readPktSize::1                     0                       # Read request sizes (log2)
system.mem_ctrls.readPktSize::2                     0                       # Read request sizes (log2)
system.mem_ctrls.readPktSize::3                     0                       # Read request sizes (log2)
system.mem_ctrls.readPktSize::4                     0                       # Read request sizes (log2)
system.mem_ctrls.readPktSize::5                     0                       # Read request sizes (log2)
system.mem_ctrls.readPktSize::6                  6595                       # Read request sizes (log2)
system.mem_ctrls.writePktSize::0                    0                       # Write request sizes (log2)
system.mem_ctrls.writePktSize::1                    0                       # Write request sizes (log2)
system.mem_ctrls.writePktSize::2                    0                       # Write request sizes (log2)
system.mem_ctrls.writePktSize::3                    0                       # Write request sizes (log2)
system.mem_ctrls.writePktSize::4                    0                       # Write request sizes (log2)
system.mem_ctrls.writePktSize::5                    0                       # Write request sizes (log2)
system.mem_ctrls.writePktSize::6                 2145                       # Write request sizes (log2)
system.mem_ctrls.rdQLenPdf::0                    6432                       # What read queue length does an incoming req see
system.mem_ctrls.rdQLenPdf::1                     146                       # What read queue length does an incoming req see
system.mem_ctrls.rdQLenPdf::2                       0                       # What read queue length does an incoming req see
system.mem_ctrls.rdQLenPdf::3                       0                       # What read queue length does an incoming req see
system.mem_ctrls.rdQLenPdf::4                       0                       # What read queue length does an incoming req see
system.mem_ctrls.rdQLenPdf::5                       0                       # What read queue length does an incoming req see
system.mem_ctrls.rdQLenPdf::6                       0                       # What read queue length does an incoming req see
system.mem_ctrls.rdQLenPdf::7                       0                       # What read queue length does an incoming req see
system.mem_ctrls.rdQLenPdf::8                       0                       # What read queue length does an incoming req see
system.mem_ctrls.rdQLenPdf::9                       0                       # What read queue length does an incoming req see
system.mem_ctrls.rdQLenPdf::10                      0                       # What read queue length does an incoming req see
system.mem_ctrls.rdQLenPdf::11                      0                       # What read queue length does an incoming req see
system.mem_ctrls.rdQLenPdf::12                      0                       # What read queue length does an incoming req see
system.mem_ctrls.rdQLenPdf::13                      0                       # What read queue length does an incoming req see
system.mem_ctrls.rdQLenPdf::14                      0                       # What read queue length does an incoming req see
system.mem_ctrls.rdQLenPdf::15                      0                       # What read queue length does an incoming req see
system.mem_ctrls.rdQLenPdf::16                      0                       # What read queue length does an incoming req see
system.mem_ctrls.rdQLenPdf::17                      0                       # What read queue length does an incoming req see
system.mem_ctrls.rdQLenPdf::18                      0                       # What read queue length does an incoming req see
system.mem_ctrls.rdQLenPdf::19                      0                       # What read queue length does an incoming req see
system.mem_ctrls.rdQLenPdf::20                      0                       # What read queue length does an incoming req see
system.mem_ctrls.rdQLenPdf::21                      0                       # What read queue length does an incoming req see
system.mem_ctrls.rdQLenPdf::22                      0                       # What read queue length does an incoming req see
system.mem_ctrls.rdQLenPdf::23                      0                       # What read queue length does an incoming req see
system.mem_ctrls.rdQLenPdf::24                      0                       # What read queue length does an incoming req see
system.mem_ctrls.rdQLenPdf::25                      0                       # What read queue length does an incoming req see
system.mem_ctrls.rdQLenPdf::26                      0                       # What read queue length does an incoming req see
system.mem_ctrls.rdQLenPdf::27                      0                       # What read queue length does an incoming req see
system.mem_ctrls.rdQLenPdf::28                      0                       # What read queue length does an incoming req see
system.mem_ctrls.rdQLenPdf::29                      0                       # What read queue length does an incoming req see
system.mem_ctrls.rdQLenPdf::30                      0                       # What read queue length does an incoming req see
system.mem_ctrls.rdQLenPdf::31                      0                       # What read queue length does an incoming req see
system.mem_ctrls.wrQLenPdf::0                       1                       # What write queue length does an incoming req see
system.mem_ctrls.wrQLenPdf::1                       1                       # What write queue length does an incoming req see
system.mem_ctrls.wrQLenPdf::2                       1                       # What write queue length does an incoming req see
system.mem_ctrls.wrQLenPdf::3                       1                       # What write queue length does an incoming req see
system.mem_ctrls.wrQLenPdf::4                       1                       # What write queue length does an incoming req see
system.mem_ctrls.wrQLenPdf::5                       1                       # What write queue length does an incoming req see
system.mem_ctrls.wrQLenPdf::6                       1                       # What write queue length does an incoming req see
system.mem_ctrls.wrQLenPdf::7                       1                       # What write queue length does an incoming req see
system.mem_ctrls.wrQLenPdf::8                       1                       # What write queue length does an incoming req see
system.mem_ctrls.wrQLenPdf::9                       1                       # What write queue length does an incoming req see
system.mem_ctrls.wrQLenPdf::10                      1                       # What write queue length does an incoming req see
system.mem_ctrls.wrQLenPdf::11                      1                       # What write queue length does an incoming req see
system.mem_ctrls.wrQLenPdf::12                      1                       # What write queue length does an incoming req see
system.mem_ctrls.wrQLenPdf::13                      1                       # What write queue length does an incoming req see
system.mem_ctrls.wrQLenPdf::14                      1                       # What write queue length does an incoming req see
system.mem_ctrls.wrQLenPdf::15                    102                       # What write queue length does an incoming req see
system.mem_ctrls.wrQLenPdf::16                    107                       # What write queue length does an incoming req see
system.mem_ctrls.wrQLenPdf::17                    130                       # What write queue length does an incoming req see
system.mem_ctrls.wrQLenPdf::18                    125                       # What write queue length does an incoming req see
system.mem_ctrls.wrQLenPdf::19                    116                       # What write queue length does an incoming req see
system.mem_ctrls.wrQLenPdf::20                    183                       # What write queue length does an incoming req see
system.mem_ctrls.wrQLenPdf::21                    115                       # What write queue length does an incoming req see
system.mem_ctrls.wrQLenPdf::22                    121                       # What write queue length does an incoming req see
system.mem_ctrls.wrQLenPdf::23                    131                       # What write queue length does an incoming req see
system.mem_ctrls.wrQLenPdf::24                    107                       # What write queue length does an incoming req see
system.mem_ctrls.wrQLenPdf::25                    113                       # What write queue length does an incoming req see
system.mem_ctrls.wrQLenPdf::26                    131                       # What write queue length does an incoming req see
system.mem_ctrls.wrQLenPdf::27                    111                       # What write queue length does an incoming req see
system.mem_ctrls.wrQLenPdf::28                    107                       # What write queue length does an incoming req see
system.mem_ctrls.wrQLenPdf::29                    107                       # What write queue length does an incoming req see
system.mem_ctrls.wrQLenPdf::30                    106                       # What write queue length does an incoming req see
system.mem_ctrls.wrQLenPdf::31                    104                       # What write queue length does an incoming req see
system.mem_ctrls.wrQLenPdf::32                    102                       # What write queue length does an incoming req see
system.mem_ctrls.wrQLenPdf::33                      3                       # What write queue length does an incoming req see
system.mem_ctrls.wrQLenPdf::34                      3                       # What write queue length does an incoming req see
system.mem_ctrls.wrQLenPdf::35                      3                       # What write queue length does an incoming req see
system.mem_ctrls.wrQLenPdf::36                      1                       # What write queue length does an incoming req see
system.mem_ctrls.wrQLenPdf::37                      1                       # What write queue length does an incoming req see
system.mem_ctrls.wrQLenPdf::38                      1                       # What write queue length does an incoming req see
system.mem_ctrls.wrQLenPdf::39                      0                       # What write queue length does an incoming req see
system.mem_ctrls.wrQLenPdf::40                      0                       # What write queue length does an incoming req see
system.mem_ctrls.wrQLenPdf::41                      0                       # What write queue length does an incoming req see
system.mem_ctrls.wrQLenPdf::42                      0                       # What write queue length does an incoming req see
system.mem_ctrls.wrQLenPdf::43                      0                       # What write queue length does an incoming req see
system.mem_ctrls.wrQLenPdf::44                      0                       # What write queue length does an incoming req see
system.mem_ctrls.wrQLenPdf::45                      0                       # What write queue length does an incoming req see
system.mem_ctrls.wrQLenPdf::46                      0                       # What write queue length does an incoming req see
system.mem_ctrls.wrQLenPdf::47                      0                       # What write queue length does an incoming req see
system.mem_ctrls.wrQLenPdf::48                      0                       # What write queue length does an incoming req see
system.mem_ctrls.wrQLenPdf::49                      0                       # What write queue length does an incoming req see
system.mem_ctrls.wrQLenPdf::50                      0                       # What write queue length does an incoming req see
system.mem_ctrls.wrQLenPdf::51                      0                       # What write queue length does an incoming req see
system.mem_ctrls.wrQLenPdf::52                      0                       # What write queue length does an incoming req see
system.mem_ctrls.wrQLenPdf::53                      0                       # What write queue length does an incoming req see
system.mem_ctrls.wrQLenPdf::54                      0                       # What write queue length does an incoming req see
system.mem_ctrls.wrQLenPdf::55                      0                       # What write queue length does an incoming req see
system.mem_ctrls.wrQLenPdf::56                      0                       # What write queue length does an incoming req see
system.mem_ctrls.wrQLenPdf::57                      0                       # What write queue length does an incoming req see
system.mem_ctrls.wrQLenPdf::58                      0                       # What write queue length does an incoming req see
system.mem_ctrls.wrQLenPdf::59                      0                       # What write queue length does an incoming req see
system.mem_ctrls.wrQLenPdf::60                      0                       # What write queue length does an incoming req see
system.mem_ctrls.wrQLenPdf::61                      0                       # What write queue length does an incoming req see
system.mem_ctrls.wrQLenPdf::62                      0                       # What write queue length does an incoming req see
system.mem_ctrls.wrQLenPdf::63                      0                       # What write queue length does an incoming req see
system.mem_ctrls.bytesPerActivate::samples         2802                       # Bytes accessed per row activation
system.mem_ctrls.bytesPerActivate::mean    198.738044                       # Bytes accessed per row activation
system.mem_ctrls.bytesPerActivate::gmean   119.752870                       # Bytes accessed per row activation
system.mem_ctrls.bytesPerActivate::stdev   271.124629                       # Bytes accessed per row activation
system.mem_ctrls.bytesPerActivate::0-127         1452     51.82%     51.82% # Bytes accessed per row activation
system.mem_ctrls.bytesPerActivate::128-255          862     30.76%     82.58% # Bytes accessed per row activation
system.mem_ctrls.bytesPerActivate::256-383          104      3.71%     86.30% # Bytes accessed per row activation
system.mem_ctrls.bytesPerActivate::384-511           61      2.18%     88.47% # Bytes accessed per row activation
system.mem_ctrls.bytesPerActivate::512-639           43      1.53%     90.01% # Bytes accessed per row activation
system.mem_ctrls.bytesPerActivate::640-767           33      1.18%     91.18% # Bytes accessed per row activation
system.mem_ctrls.bytesPerActivate::768-895           17      0.61%     91.79% # Bytes accessed per row activation
system.mem_ctrls.bytesPerActivate::896-1023           21      0.75%     92.54% # Bytes accessed per row activation
system.mem_ctrls.bytesPerActivate::1024-1151          209      7.46%    100.00% # Bytes accessed per row activation
system.mem_ctrls.bytesPerActivate::total         2802                       # Bytes accessed per row activation
system.mem_ctrls.rdPerTurnAround::samples          102                       # Reads before turning the bus around for writes
system.mem_ctrls.rdPerTurnAround::mean     199.931373                       # Reads before turning the bus around for writes
system.mem_ctrls.rdPerTurnAround::stdev   1653.842973                       # Reads before turning the bus around for writes
system.mem_ctrls.rdPerTurnAround::0-511           100     98.04%     98.04% # Reads before turning the bus around for writes
system.mem_ctrls.rdPerTurnAround::3584-4095            1      0.98%     99.02% # Reads before turning the bus around for writes
system.mem_ctrls.rdPerTurnAround::15872-16383            1      0.98%    100.00% # Reads before turning the bus around for writes
system.mem_ctrls.rdPerTurnAround::total           102                       # Reads before turning the bus around for writes
system.mem_ctrls.wrPerTurnAround::samples          102                       # Writes before turning the bus around for reads
system.mem_ctrls.wrPerTurnAround::mean      20.794118                       # Writes before turning the bus around for reads
system.mem_ctrls.wrPerTurnAround::gmean     20.736444                       # Writes before turning the bus around for reads
system.mem_ctrls.wrPerTurnAround::stdev      1.600360                       # Writes before turning the bus around for reads
system.mem_ctrls.wrPerTurnAround::16                1      0.98%      0.98% # Writes before turning the bus around for reads
system.mem_ctrls.wrPerTurnAround::18                2      1.96%      2.94% # Writes before turning the bus around for reads
system.mem_ctrls.wrPerTurnAround::19               19     18.63%     21.57% # Writes before turning the bus around for reads
system.mem_ctrls.wrPerTurnAround::20                9      8.82%     30.39% # Writes before turning the bus around for reads
system.mem_ctrls.wrPerTurnAround::21               53     51.96%     82.35% # Writes before turning the bus around for reads
system.mem_ctrls.wrPerTurnAround::22                8      7.84%     90.20% # Writes before turning the bus around for reads
system.mem_ctrls.wrPerTurnAround::23                7      6.86%     97.06% # Writes before turning the bus around for reads
system.mem_ctrls.wrPerTurnAround::24                2      1.96%     99.02% # Writes before turning the bus around for reads
system.mem_ctrls.wrPerTurnAround::30                1      0.98%    100.00% # Writes before turning the bus around for reads
system.mem_ctrls.wrPerTurnAround::total           102                       # Writes before turning the bus around for reads
system.mem_ctrls.totQLat                     62695500                       # Total ticks spent queuing
system.mem_ctrls.totMemAccLat               186033000                       # Total ticks spent from burst creation until serviced by the DRAM
system.mem_ctrls.totBusLat                   32890000                       # Total ticks spent in databus transfers
system.mem_ctrls.avgQLat                      9531.09                       # Average queueing delay per DRAM burst
system.mem_ctrls.avgBusLat                    5000.00                       # Average bus latency per DRAM burst
system.mem_ctrls.avgMemAccLat                28281.09                       # Average memory access latency per DRAM burst
system.mem_ctrls.avgRdBW                         0.91                       # Average DRAM read bandwidth in MiByte/s
system.mem_ctrls.avgWrBW                         0.29                       # Average achieved write bandwidth in MiByte/s
system.mem_ctrls.avgRdBWSys                      0.91                       # Average system read bandwidth in MiByte/s
system.mem_ctrls.avgWrBWSys                      0.30                       # Average system write bandwidth in MiByte/s
system.mem_ctrls.peakBW                      12800.00                       # Theoretical peak bandwidth in MiByte/s
system.mem_ctrls.busUtil                         0.01                       # Data bus utilization in percentage
system.mem_ctrls.busUtilRead                     0.01                       # Data bus utilization in percentage for reads
system.mem_ctrls.busUtilWrite                    0.00                       # Data bus utilization in percentage for writes
system.mem_ctrls.avgRdQLen                       1.00                       # Average read queue length when enqueuing
system.mem_ctrls.avgWrQLen                      29.94                       # Average write queue length when enqueuing
system.mem_ctrls.readRowHits                     3922                       # Number of row buffer hits during reads
system.mem_ctrls.writeRowHits                    1975                       # Number of row buffer hits during writes
system.mem_ctrls.readRowHitRate                 59.62                       # Row buffer hit rate for reads
system.mem_ctrls.writeRowHitRate                92.07                       # Row buffer hit rate for writes
system.mem_ctrls.avgGap                   52844541.36                       # Average gap between requests
system.mem_ctrls.pageHitRate                    67.60                       # Row buffer hit rate, read and write combined
system.mem_ctrls_0.actEnergy                 23632560                       # Energy for activate commands per rank (pJ)
system.mem_ctrls_0.preEnergy                 12894750                       # Energy for precharge commands per rank (pJ)
system.mem_ctrls_0.readEnergy                82578600                       # Energy for read commands per rank (pJ)
system.mem_ctrls_0.writeEnergy                7069680                       # Energy for write commands per rank (pJ)
system.mem_ctrls_0.refreshEnergy          30375780240                       # Energy for refresh commands per rank (pJ)
system.mem_ctrls_0.actBackEnergy          12355877745                       # Energy for active background per rank (pJ)
system.mem_ctrls_0.preBackEnergy         268200622500                       # Energy for precharge background per rank (pJ)
system.mem_ctrls_0.totalEnergy           311058456075                       # Total energy per rank (pJ)
system.mem_ctrls_0.averagePower            668.849153                       # Core power per rank (mW)
system.mem_ctrls_0.memoryStateTime::IDLE 444925120750                       # Time in different power states
system.mem_ctrls_0.memoryStateTime::REF   15422420000                       # Time in different power states
system.mem_ctrls_0.memoryStateTime::PRE_PDN            0                       # Time in different power states
system.mem_ctrls_0.memoryStateTime::ACT    1513912000                       # Time in different power states
system.mem_ctrls_0.memoryStateTime::ACT_PDN            0                       # Time in different power states
system.mem_ctrls_1.actEnergy                 26097120                       # Energy for activate commands per rank (pJ)
system.mem_ctrls_1.preEnergy                 14239500                       # Energy for precharge commands per rank (pJ)
system.mem_ctrls_1.readEnergy                86502000                       # Energy for read commands per rank (pJ)
system.mem_ctrls_1.writeEnergy                6674400                       # Energy for write commands per rank (pJ)
system.mem_ctrls_1.refreshEnergy          30375780240                       # Energy for refresh commands per rank (pJ)
system.mem_ctrls_1.actBackEnergy          12887407305                       # Energy for active background per rank (pJ)
system.mem_ctrls_1.preBackEnergy         267734360250                       # Energy for precharge background per rank (pJ)
system.mem_ctrls_1.totalEnergy           311131060815                       # Total energy per rank (pJ)
system.mem_ctrls_1.averagePower            669.005290                       # Core power per rank (mW)
system.mem_ctrls_1.memoryStateTime::IDLE 444171796000                       # Time in different power states
system.mem_ctrls_1.memoryStateTime::REF   15422420000                       # Time in different power states
system.mem_ctrls_1.memoryStateTime::PRE_PDN            0                       # Time in different power states
system.mem_ctrls_1.memoryStateTime::ACT    2262775250                       # Time in different power states
system.mem_ctrls_1.memoryStateTime::ACT_PDN            0                       # Time in different power states
system.cpu_voltage_domain.voltage                   1                       # Voltage in Volts
system.cpu_clk_domain.clock                       500                       # Clock period in ticks
system.cpu0.apic_clk_domain.clock                8000                       # Clock period in ticks
system.cpu0.numCycles                       923936772                       # number of cpu cycles simulated
system.cpu0.numWorkItemsStarted                     0                       # number of work items this cpu started
system.cpu0.numWorkItemsCompleted                   0                       # number of work items this cpu completed
system.cpu0.kern.inst.arm                           0                       # number of arm instructions executed
system.cpu0.kern.inst.quiesce                       0                       # number of quiesce instructions executed
system.cpu0.committedInsts                     965585                       # Number of instructions committed
system.cpu0.committedOps                      1910180                       # Number of ops (including micro ops) committed
system.cpu0.num_int_alu_accesses              1877226                       # Number of integer alu accesses
system.cpu0.num_fp_alu_accesses                   370                       # Number of float alu accesses
system.cpu0.num_func_calls                      45946                       # number of times a function call or return occured
system.cpu0.num_conditional_control_insts       146105                       # number of instructions that are conditional controls
system.cpu0.num_int_insts                     1877226                       # number of integer instructions
system.cpu0.num_fp_insts                          370                       # number of float instructions
system.cpu0.num_int_register_reads            3841724                       # number of times the integer registers were read
system.cpu0.num_int_register_writes           1523638                       # number of times the integer registers were written
system.cpu0.num_fp_register_reads                 594                       # number of times the floating registers were read
system.cpu0.num_fp_register_writes                261                       # number of times the floating registers were written
system.cpu0.num_cc_register_reads             1071721                       # number of times the CC registers were read
system.cpu0.num_cc_register_writes             621070                       # number of times the CC registers were written
system.cpu0.num_mem_refs                       449818                       # number of memory refs
system.cpu0.num_load_insts                     270773                       # Number of load instructions
system.cpu0.num_store_insts                    179045                       # Number of store instructions
system.cpu0.num_idle_cycles              919861121.743496                       # Number of idle cycles
system.cpu0.num_busy_cycles              4075650.256504                       # Number of busy cycles
system.cpu0.not_idle_fraction                0.004411                       # Percentage of non-idle cycles
system.cpu0.idle_fraction                    0.995589                       # Percentage of idle cycles
system.cpu0.Branches                           206497                       # Number of branches fetched
system.cpu0.op_class::No_OpClass                21596      1.13%      1.13% # Class of executed instruction
system.cpu0.op_class::IntAlu                  1429877     74.85%     75.98% # Class of executed instruction
system.cpu0.op_class::IntMult                    2668      0.14%     76.12% # Class of executed instruction
system.cpu0.op_class::IntDiv                     6063      0.32%     76.44% # Class of executed instruction
system.cpu0.op_class::FloatAdd                    244      0.01%     76.45% # Class of executed instruction
system.cpu0.op_class::FloatCmp                      0      0.00%     76.45% # Class of executed instruction
system.cpu0.op_class::FloatCvt                      0      0.00%     76.45% # Class of executed instruction
system.cpu0.op_class::FloatMult                     0      0.00%     76.45% # Class of executed instruction
system.cpu0.op_class::FloatDiv                      0      0.00%     76.45% # Class of executed instruction
system.cpu0.op_class::FloatSqrt                     0      0.00%     76.45% # Class of executed instruction
system.cpu0.op_class::SimdAdd                       0      0.00%     76.45% # Class of executed instruction
system.cpu0.op_class::SimdAddAcc                    0      0.00%     76.45% # Class of executed instruction
system.cpu0.op_class::SimdAlu                       0      0.00%     76.45% # Class of executed instruction
system.cpu0.op_class::SimdCmp                       0      0.00%     76.45% # Class of executed instruction
system.cpu0.op_class::SimdCvt                       0      0.00%     76.45% # Class of executed instruction
system.cpu0.op_class::SimdMisc                      0      0.00%     76.45% # Class of executed instruction
system.cpu0.op_class::SimdMult                      0      0.00%     76.45% # Class of executed instruction
system.cpu0.op_class::SimdMultAcc                   0      0.00%     76.45% # Class of executed instruction
system.cpu0.op_class::SimdShift                     0      0.00%     76.45% # Class of executed instruction
system.cpu0.op_class::SimdShiftAcc                  0      0.00%     76.45% # Class of executed instruction
system.cpu0.op_class::SimdSqrt                      0      0.00%     76.45% # Class of executed instruction
system.cpu0.op_class::SimdFloatAdd                  0      0.00%     76.45% # Class of executed instruction
system.cpu0.op_class::SimdFloatAlu                  0      0.00%     76.45% # Class of executed instruction
system.cpu0.op_class::SimdFloatCmp                  0      0.00%     76.45% # Class of executed instruction
system.cpu0.op_class::SimdFloatCvt                  0      0.00%     76.45% # Class of executed instruction
system.cpu0.op_class::SimdFloatDiv                  0      0.00%     76.45% # Class of executed instruction
system.cpu0.op_class::SimdFloatMisc                 0      0.00%     76.45% # Class of executed instruction
system.cpu0.op_class::SimdFloatMult                 0      0.00%     76.45% # Class of executed instruction
system.cpu0.op_class::SimdFloatMultAcc              0      0.00%     76.45% # Class of executed instruction
system.cpu0.op_class::SimdFloatSqrt                 0      0.00%     76.45% # Class of executed instruction
system.cpu0.op_class::MemRead                  270773     14.17%     90.63% # Class of executed instruction
system.cpu0.op_class::MemWrite                 179045      9.37%    100.00% # Class of executed instruction
system.cpu0.op_class::IprAccess                     0      0.00%    100.00% # Class of executed instruction
system.cpu0.op_class::InstPrefetch                  0      0.00%    100.00% # Class of executed instruction
system.cpu0.op_class::total                   1910266                       # Class of executed instruction
system.cpu1.apic_clk_domain.clock                8000                       # Clock period in ticks
system.cpu1.numCycles                       921294564                       # number of cpu cycles simulated
system.cpu1.numWorkItemsStarted                     0                       # number of work items this cpu started
system.cpu1.numWorkItemsCompleted                   0                       # number of work items this cpu completed
system.cpu1.kern.inst.arm                           0                       # number of arm instructions executed
system.cpu1.kern.inst.quiesce                       0                       # number of quiesce instructions executed
system.cpu1.committedInsts                     389183                       # Number of instructions committed
system.cpu1.committedOps                       811395                       # Number of ops (including micro ops) committed
system.cpu1.num_int_alu_accesses               796665                       # Number of integer alu accesses
system.cpu1.num_fp_alu_accesses                   158                       # Number of float alu accesses
system.cpu1.num_func_calls                      21312                       # number of times a function call or return occured
system.cpu1.num_conditional_control_insts        61396                       # number of instructions that are conditional controls
system.cpu1.num_int_insts                      796665                       # number of integer instructions
system.cpu1.num_fp_insts                          158                       # number of float instructions
system.cpu1.num_int_register_reads            1592728                       # number of times the integer registers were read
system.cpu1.num_int_register_writes            653404                       # number of times the integer registers were written
system.cpu1.num_fp_register_reads                 196                       # number of times the floating registers were read
system.cpu1.num_fp_register_writes                137                       # number of times the floating registers were written
system.cpu1.num_cc_register_reads              466187                       # number of times the CC registers were read
system.cpu1.num_cc_register_writes             253016                       # number of times the CC registers were written
system.cpu1.num_mem_refs                       186218                       # number of memory refs
system.cpu1.num_load_insts                     115020                       # Number of load instructions
system.cpu1.num_store_insts                     71198                       # Number of store instructions
system.cpu1.num_idle_cycles              919581889.900064                       # Number of idle cycles
system.cpu1.num_busy_cycles              1712674.099936                       # Number of busy cycles
system.cpu1.not_idle_fraction                0.001859                       # Percentage of non-idle cycles
system.cpu1.idle_fraction                    0.998141                       # Percentage of idle cycles
system.cpu1.Branches                            89647                       # Number of branches fetched
system.cpu1.op_class::No_OpClass                10951      1.35%      1.35% # Class of executed instruction
system.cpu1.op_class::IntAlu                   608863     75.04%     76.39% # Class of executed instruction
system.cpu1.op_class::IntMult                    1681      0.21%     76.60% # Class of executed instruction
system.cpu1.op_class::IntDiv                     3601      0.44%     77.04% # Class of executed instruction
system.cpu1.op_class::FloatAdd                     86      0.01%     77.05% # Class of executed instruction
system.cpu1.op_class::FloatCmp                      0      0.00%     77.05% # Class of executed instruction
system.cpu1.op_class::FloatCvt                      0      0.00%     77.05% # Class of executed instruction
system.cpu1.op_class::FloatMult                     0      0.00%     77.05% # Class of executed instruction
system.cpu1.op_class::FloatDiv                      0      0.00%     77.05% # Class of executed instruction
system.cpu1.op_class::FloatSqrt                     0      0.00%     77.05% # Class of executed instruction
system.cpu1.op_class::SimdAdd                       0      0.00%     77.05% # Class of executed instruction
system.cpu1.op_class::SimdAddAcc                    0      0.00%     77.05% # Class of executed instruction
system.cpu1.op_class::SimdAlu                       0      0.00%     77.05% # Class of executed instruction
system.cpu1.op_class::SimdCmp                       0      0.00%     77.05% # Class of executed instruction
system.cpu1.op_class::SimdCvt                       0      0.00%     77.05% # Class of executed instruction
system.cpu1.op_class::SimdMisc                      0      0.00%     77.05% # Class of executed instruction
system.cpu1.op_class::SimdMult                      0      0.00%     77.05% # Class of executed instruction
system.cpu1.op_class::SimdMultAcc                   0      0.00%     77.05% # Class of executed instruction
system.cpu1.op_class::SimdShift                     0      0.00%     77.05% # Class of executed instruction
system.cpu1.op_class::SimdShiftAcc                  0      0.00%     77.05% # Class of executed instruction
system.cpu1.op_class::SimdSqrt                      0      0.00%     77.05% # Class of executed instruction
system.cpu1.op_class::SimdFloatAdd                  0      0.00%     77.05% # Class of executed instruction
system.cpu1.op_class::SimdFloatAlu                  0      0.00%     77.05% # Class of executed instruction
system.cpu1.op_class::SimdFloatCmp                  0      0.00%     77.05% # Class of executed instruction
system.cpu1.op_class::SimdFloatCvt                  0      0.00%     77.05% # Class of executed instruction
system.cpu1.op_class::SimdFloatDiv                  0      0.00%     77.05% # Class of executed instruction
system.cpu1.op_class::SimdFloatMisc                 0      0.00%     77.05% # Class of executed instruction
system.cpu1.op_class::SimdFloatMult                 0      0.00%     77.05% # Class of executed instruction
system.cpu1.op_class::SimdFloatMultAcc              0      0.00%     77.05% # Class of executed instruction
system.cpu1.op_class::SimdFloatSqrt                 0      0.00%     77.05% # Class of executed instruction
system.cpu1.op_class::MemRead                  115020     14.18%     91.23% # Class of executed instruction
system.cpu1.op_class::MemWrite                  71198      8.77%    100.00% # Class of executed instruction
system.cpu1.op_class::IprAccess                     0      0.00%    100.00% # Class of executed instruction
system.cpu1.op_class::InstPrefetch                  0      0.00%    100.00% # Class of executed instruction
system.cpu1.op_class::total                    811400                       # Class of executed instruction
system.cpu2.apic_clk_domain.clock                8000                       # Clock period in ticks
system.cpu2.numCycles                       921973544                       # number of cpu cycles simulated
system.cpu2.numWorkItemsStarted                     0                       # number of work items this cpu started
system.cpu2.numWorkItemsCompleted                   0                       # number of work items this cpu completed
system.cpu2.kern.inst.arm                           0                       # number of arm instructions executed
system.cpu2.kern.inst.quiesce                       0                       # number of quiesce instructions executed
system.cpu2.committedInsts                  265837362                       # Number of instructions committed
system.cpu2.committedOps                    479347974                       # Number of ops (including micro ops) committed
system.cpu2.num_int_alu_accesses            269719351                       # Number of integer alu accesses
system.cpu2.num_fp_alu_accesses             270604333                       # Number of float alu accesses
system.cpu2.num_func_calls                    9864692                       # number of times a function call or return occured
system.cpu2.num_conditional_control_insts     15016737                       # number of instructions that are conditional controls
system.cpu2.num_int_insts                   269719351                       # number of integer instructions
system.cpu2.num_fp_insts                    270604333                       # number of float instructions
system.cpu2.num_int_register_reads          512828749                       # number of times the integer registers were read
system.cpu2.num_int_register_writes         176198151                       # number of times the integer registers were written
system.cpu2.num_fp_register_reads           446701796                       # number of times the floating registers were read
system.cpu2.num_fp_register_writes          249458581                       # number of times the floating registers were written
system.cpu2.num_cc_register_reads           107012272                       # number of times the CC registers were read
system.cpu2.num_cc_register_writes           83035424                       # number of times the CC registers were written
system.cpu2.num_mem_refs                     84047739                       # number of memory refs
system.cpu2.num_load_insts                   62888509                       # Number of load instructions
system.cpu2.num_store_insts                  21159230                       # Number of store instructions
system.cpu2.num_idle_cycles              3103289.442596                       # Number of idle cycles
system.cpu2.num_busy_cycles              918870254.557404                       # Number of busy cycles
system.cpu2.not_idle_fraction                0.996634                       # Percentage of non-idle cycles
system.cpu2.idle_fraction                    0.003366                       # Percentage of idle cycles
system.cpu2.Branches                         27067162                       # Number of branches fetched
system.cpu2.op_class::No_OpClass                10601      0.00%      0.00% # Class of executed instruction
system.cpu2.op_class::IntAlu                244916295     51.09%     51.10% # Class of executed instruction
system.cpu2.op_class::IntMult                    2218      0.00%     51.10% # Class of executed instruction
system.cpu2.op_class::IntDiv                     1962      0.00%     51.10% # Class of executed instruction
system.cpu2.op_class::FloatAdd              150369260     31.37%     82.47% # Class of executed instruction
system.cpu2.op_class::FloatCmp                      0      0.00%     82.47% # Class of executed instruction
system.cpu2.op_class::FloatCvt                      0      0.00%     82.47% # Class of executed instruction
system.cpu2.op_class::FloatMult                     0      0.00%     82.47% # Class of executed instruction
system.cpu2.op_class::FloatDiv                      0      0.00%     82.47% # Class of executed instruction
system.cpu2.op_class::FloatSqrt                     0      0.00%     82.47% # Class of executed instruction
system.cpu2.op_class::SimdAdd                       0      0.00%     82.47% # Class of executed instruction
system.cpu2.op_class::SimdAddAcc                    0      0.00%     82.47% # Class of executed instruction
system.cpu2.op_class::SimdAlu                       0      0.00%     82.47% # Class of executed instruction
system.cpu2.op_class::SimdCmp                       0      0.00%     82.47% # Class of executed instruction
system.cpu2.op_class::SimdCvt                       0      0.00%     82.47% # Class of executed instruction
system.cpu2.op_class::SimdMisc                      0      0.00%     82.47% # Class of executed instruction
system.cpu2.op_class::SimdMult                      0      0.00%     82.47% # Class of executed instruction
system.cpu2.op_class::SimdMultAcc                   0      0.00%     82.47% # Class of executed instruction
system.cpu2.op_class::SimdShift                     0      0.00%     82.47% # Class of executed instruction
system.cpu2.op_class::SimdShiftAcc                  0      0.00%     82.47% # Class of executed instruction
system.cpu2.op_class::SimdSqrt                      0      0.00%     82.47% # Class of executed instruction
system.cpu2.op_class::SimdFloatAdd                  0      0.00%     82.47% # Class of executed instruction
system.cpu2.op_class::SimdFloatAlu                  0      0.00%     82.47% # Class of executed instruction
system.cpu2.op_class::SimdFloatCmp                  0      0.00%     82.47% # Class of executed instruction
system.cpu2.op_class::SimdFloatCvt                  0      0.00%     82.47% # Class of executed instruction
system.cpu2.op_class::SimdFloatDiv                  0      0.00%     82.47% # Class of executed instruction
system.cpu2.op_class::SimdFloatMisc                 0      0.00%     82.47% # Class of executed instruction
system.cpu2.op_class::SimdFloatMult                 0      0.00%     82.47% # Class of executed instruction
system.cpu2.op_class::SimdFloatMultAcc              0      0.00%     82.47% # Class of executed instruction
system.cpu2.op_class::SimdFloatSqrt                 0      0.00%     82.47% # Class of executed instruction
system.cpu2.op_class::MemRead                62888509     13.12%     95.59% # Class of executed instruction
system.cpu2.op_class::MemWrite               21159230      4.41%    100.00% # Class of executed instruction
system.cpu2.op_class::IprAccess                     0      0.00%    100.00% # Class of executed instruction
system.cpu2.op_class::InstPrefetch                  0      0.00%    100.00% # Class of executed instruction
system.cpu2.op_class::total                 479348075                       # Class of executed instruction
system.cpu3.apic_clk_domain.clock                8000                       # Clock period in ticks
system.cpu3.numCycles                       922451285                       # number of cpu cycles simulated
system.cpu3.numWorkItemsStarted                     0                       # number of work items this cpu started
system.cpu3.numWorkItemsCompleted                   0                       # number of work items this cpu completed
system.cpu3.kern.inst.arm                           0                       # number of arm instructions executed
system.cpu3.kern.inst.quiesce                       0                       # number of quiesce instructions executed
system.cpu3.committedInsts                     319736                       # Number of instructions committed
system.cpu3.committedOps                       678823                       # Number of ops (including micro ops) committed
system.cpu3.num_int_alu_accesses               665602                       # Number of integer alu accesses
system.cpu3.num_fp_alu_accesses                    39                       # Number of float alu accesses
system.cpu3.num_func_calls                      19342                       # number of times a function call or return occured
system.cpu3.num_conditional_control_insts        44788                       # number of instructions that are conditional controls
system.cpu3.num_int_insts                      665602                       # number of integer instructions
system.cpu3.num_fp_insts                           39                       # number of float instructions
system.cpu3.num_int_register_reads            1358867                       # number of times the integer registers were read
system.cpu3.num_int_register_writes            545786                       # number of times the integer registers were written
system.cpu3.num_fp_register_reads                  63                       # number of times the floating registers were read
system.cpu3.num_fp_register_writes                 31                       # number of times the floating registers were written
system.cpu3.num_cc_register_reads              354363                       # number of times the CC registers were read
system.cpu3.num_cc_register_writes             199104                       # number of times the CC registers were written
system.cpu3.num_mem_refs                       168018                       # number of memory refs
system.cpu3.num_load_insts                     103111                       # Number of load instructions
system.cpu3.num_store_insts                     64907                       # Number of store instructions
system.cpu3.num_idle_cycles              921020507.062010                       # Number of idle cycles
system.cpu3.num_busy_cycles              1430777.937990                       # Number of busy cycles
system.cpu3.not_idle_fraction                0.001551                       # Percentage of non-idle cycles
system.cpu3.idle_fraction                    0.998449                       # Percentage of idle cycles
system.cpu3.Branches                            70357                       # Number of branches fetched
system.cpu3.op_class::No_OpClass                 9908      1.46%      1.46% # Class of executed instruction
system.cpu3.op_class::IntAlu                   496505     73.14%     74.60% # Class of executed instruction
system.cpu3.op_class::IntMult                    1382      0.20%     74.80% # Class of executed instruction
system.cpu3.op_class::IntDiv                     3002      0.44%     75.25% # Class of executed instruction
system.cpu3.op_class::FloatAdd                     30      0.00%     75.25% # Class of executed instruction
system.cpu3.op_class::FloatCmp                      0      0.00%     75.25% # Class of executed instruction
system.cpu3.op_class::FloatCvt                      0      0.00%     75.25% # Class of executed instruction
system.cpu3.op_class::FloatMult                     0      0.00%     75.25% # Class of executed instruction
system.cpu3.op_class::FloatDiv                      0      0.00%     75.25% # Class of executed instruction
system.cpu3.op_class::FloatSqrt                     0      0.00%     75.25% # Class of executed instruction
system.cpu3.op_class::SimdAdd                       0      0.00%     75.25% # Class of executed instruction
system.cpu3.op_class::SimdAddAcc                    0      0.00%     75.25% # Class of executed instruction
system.cpu3.op_class::SimdAlu                       0      0.00%     75.25% # Class of executed instruction
system.cpu3.op_class::SimdCmp                       0      0.00%     75.25% # Class of executed instruction
system.cpu3.op_class::SimdCvt                       0      0.00%     75.25% # Class of executed instruction
system.cpu3.op_class::SimdMisc                      0      0.00%     75.25% # Class of executed instruction
system.cpu3.op_class::SimdMult                      0      0.00%     75.25% # Class of executed instruction
system.cpu3.op_class::SimdMultAcc                   0      0.00%     75.25% # Class of executed instruction
system.cpu3.op_class::SimdShift                     0      0.00%     75.25% # Class of executed instruction
system.cpu3.op_class::SimdShiftAcc                  0      0.00%     75.25% # Class of executed instruction
system.cpu3.op_class::SimdSqrt                      0      0.00%     75.25% # Class of executed instruction
system.cpu3.op_class::SimdFloatAdd                  0      0.00%     75.25% # Class of executed instruction
system.cpu3.op_class::SimdFloatAlu                  0      0.00%     75.25% # Class of executed instruction
system.cpu3.op_class::SimdFloatCmp                  0      0.00%     75.25% # Class of executed instruction
system.cpu3.op_class::SimdFloatCvt                  0      0.00%     75.25% # Class of executed instruction
system.cpu3.op_class::SimdFloatDiv                  0      0.00%     75.25% # Class of executed instruction
system.cpu3.op_class::SimdFloatMisc                 0      0.00%     75.25% # Class of executed instruction
system.cpu3.op_class::SimdFloatMult                 0      0.00%     75.25% # Class of executed instruction
system.cpu3.op_class::SimdFloatMultAcc              0      0.00%     75.25% # Class of executed instruction
system.cpu3.op_class::SimdFloatSqrt                 0      0.00%     75.25% # Class of executed instruction
system.cpu3.op_class::MemRead                  103111     15.19%     90.44% # Class of executed instruction
system.cpu3.op_class::MemWrite                  64907      9.56%    100.00% # Class of executed instruction
system.cpu3.op_class::IprAccess                     0      0.00%    100.00% # Class of executed instruction
system.cpu3.op_class::InstPrefetch                  0      0.00%    100.00% # Class of executed instruction
system.cpu3.op_class::total                    678845                       # Class of executed instruction
system.iobus.trans_dist::ReadReq                   97                       # Transaction distribution
system.iobus.trans_dist::ReadResp                  97                       # Transaction distribution
system.iobus.trans_dist::WriteReq                 558                       # Transaction distribution
system.iobus.trans_dist::WriteResp                558                       # Transaction distribution
system.iobus.trans_dist::MessageReq                17                       # Transaction distribution
system.iobus.trans_dist::MessageResp               17                       # Transaction distribution
system.iobus.pkt_count_system.pc.south_bridge.io_apic.int_master::system.ruby.l1_cntrl0.sequencer.pio-slave-port            2                       # Packet count per connected master and slave (bytes)
system.iobus.pkt_count_system.pc.south_bridge.io_apic.int_master::system.ruby.l1_cntrl1.sequencer.pio-slave-port            4                       # Packet count per connected master and slave (bytes)
system.iobus.pkt_count_system.pc.south_bridge.io_apic.int_master::system.ruby.l1_cntrl2.sequencer.pio-slave-port            2                       # Packet count per connected master and slave (bytes)
system.iobus.pkt_count_system.pc.south_bridge.io_apic.int_master::system.ruby.l1_cntrl3.sequencer.pio-slave-port            2                       # Packet count per connected master and slave (bytes)
system.iobus.pkt_count_system.pc.south_bridge.io_apic.int_master::total           10                       # Packet count per connected master and slave (bytes)
system.iobus.pkt_count_system.ruby.l1_cntrl0.sequencer.mem-master-port::system.pc.south_bridge.io_apic.pio            8                       # Packet count per connected master and slave (bytes)
system.iobus.pkt_count_system.ruby.l1_cntrl0.sequencer.mem-master-port::system.pc.com_1.pio            2                       # Packet count per connected master and slave (bytes)
system.iobus.pkt_count_system.ruby.l1_cntrl0.sequencer.mem-master-port::system.ruby.l1_cntrl0.sequencer.pio-slave-port          264                       # Packet count per connected master and slave (bytes)
system.iobus.pkt_count_system.ruby.l1_cntrl0.sequencer.mem-master-port::system.ruby.l1_cntrl1.sequencer.pio-slave-port            4                       # Packet count per connected master and slave (bytes)
system.iobus.pkt_count_system.ruby.l1_cntrl0.sequencer.mem-master-port::system.ruby.l1_cntrl2.sequencer.pio-slave-port            2                       # Packet count per connected master and slave (bytes)
system.iobus.pkt_count_system.ruby.l1_cntrl0.sequencer.mem-master-port::system.ruby.l1_cntrl3.sequencer.pio-slave-port            2                       # Packet count per connected master and slave (bytes)
system.iobus.pkt_count_system.ruby.l1_cntrl0.sequencer.mem-master-port::total          282                       # Packet count per connected master and slave (bytes)
system.iobus.pkt_count_system.ruby.l1_cntrl1.sequencer.mem-master-port::system.pc.south_bridge.ide.pio           80                       # Packet count per connected master and slave (bytes)
system.iobus.pkt_count_system.ruby.l1_cntrl1.sequencer.mem-master-port::system.pc.south_bridge.io_apic.pio            8                       # Packet count per connected master and slave (bytes)
system.iobus.pkt_count_system.ruby.l1_cntrl1.sequencer.mem-master-port::system.ruby.l1_cntrl1.sequencer.pio-slave-port          248                       # Packet count per connected master and slave (bytes)
system.iobus.pkt_count_system.ruby.l1_cntrl1.sequencer.mem-master-port::system.ruby.l1_cntrl2.sequencer.pio-slave-port            2                       # Packet count per connected master and slave (bytes)
system.iobus.pkt_count_system.ruby.l1_cntrl1.sequencer.mem-master-port::total          338                       # Packet count per connected master and slave (bytes)
system.iobus.pkt_count_system.ruby.l1_cntrl2.sequencer.mem-master-port::system.pc.south_bridge.ide.pio           12                       # Packet count per connected master and slave (bytes)
system.iobus.pkt_count_system.ruby.l1_cntrl2.sequencer.mem-master-port::system.ruby.l1_cntrl0.sequencer.pio-slave-port            6                       # Packet count per connected master and slave (bytes)
system.iobus.pkt_count_system.ruby.l1_cntrl2.sequencer.mem-master-port::system.ruby.l1_cntrl1.sequencer.pio-slave-port            4                       # Packet count per connected master and slave (bytes)
system.iobus.pkt_count_system.ruby.l1_cntrl2.sequencer.mem-master-port::system.ruby.l1_cntrl2.sequencer.pio-slave-port          266                       # Packet count per connected master and slave (bytes)
system.iobus.pkt_count_system.ruby.l1_cntrl2.sequencer.mem-master-port::system.ruby.l1_cntrl3.sequencer.pio-slave-port            2                       # Packet count per connected master and slave (bytes)
system.iobus.pkt_count_system.ruby.l1_cntrl2.sequencer.mem-master-port::total          290                       # Packet count per connected master and slave (bytes)
system.iobus.pkt_count_system.ruby.l1_cntrl3.sequencer.mem-master-port::system.pc.south_bridge.io_apic.pio            6                       # Packet count per connected master and slave (bytes)
system.iobus.pkt_count_system.ruby.l1_cntrl3.sequencer.mem-master-port::system.pc.com_1.pio          174                       # Packet count per connected master and slave (bytes)
system.iobus.pkt_count_system.ruby.l1_cntrl3.sequencer.mem-master-port::system.ruby.l1_cntrl0.sequencer.pio-slave-port            2                       # Packet count per connected master and slave (bytes)
system.iobus.pkt_count_system.ruby.l1_cntrl3.sequencer.mem-master-port::system.ruby.l1_cntrl3.sequencer.pio-slave-port          242                       # Packet count per connected master and slave (bytes)
system.iobus.pkt_count_system.ruby.l1_cntrl3.sequencer.mem-master-port::total          424                       # Packet count per connected master and slave (bytes)
system.iobus.pkt_count::total                    1344                       # Packet count per connected master and slave (bytes)
system.iobus.pkt_size_system.pc.south_bridge.io_apic.int_master::system.ruby.l1_cntrl0.sequencer.pio-slave-port            4                       # Cumulative packet size per connected master and slave (bytes)
system.iobus.pkt_size_system.pc.south_bridge.io_apic.int_master::system.ruby.l1_cntrl1.sequencer.pio-slave-port            8                       # Cumulative packet size per connected master and slave (bytes)
system.iobus.pkt_size_system.pc.south_bridge.io_apic.int_master::system.ruby.l1_cntrl2.sequencer.pio-slave-port            4                       # Cumulative packet size per connected master and slave (bytes)
system.iobus.pkt_size_system.pc.south_bridge.io_apic.int_master::system.ruby.l1_cntrl3.sequencer.pio-slave-port            4                       # Cumulative packet size per connected master and slave (bytes)
system.iobus.pkt_size_system.pc.south_bridge.io_apic.int_master::total           20                       # Cumulative packet size per connected master and slave (bytes)
system.iobus.pkt_size_system.ruby.l1_cntrl0.sequencer.mem-master-port::system.pc.south_bridge.io_apic.pio           16                       # Cumulative packet size per connected master and slave (bytes)
system.iobus.pkt_size_system.ruby.l1_cntrl0.sequencer.mem-master-port::system.pc.com_1.pio            1                       # Cumulative packet size per connected master and slave (bytes)
system.iobus.pkt_size_system.ruby.l1_cntrl0.sequencer.mem-master-port::system.ruby.l1_cntrl0.sequencer.pio-slave-port          528                       # Cumulative packet size per connected master and slave (bytes)
system.iobus.pkt_size_system.ruby.l1_cntrl0.sequencer.mem-master-port::system.ruby.l1_cntrl1.sequencer.pio-slave-port            8                       # Cumulative packet size per connected master and slave (bytes)
system.iobus.pkt_size_system.ruby.l1_cntrl0.sequencer.mem-master-port::system.ruby.l1_cntrl2.sequencer.pio-slave-port            4                       # Cumulative packet size per connected master and slave (bytes)
system.iobus.pkt_size_system.ruby.l1_cntrl0.sequencer.mem-master-port::system.ruby.l1_cntrl3.sequencer.pio-slave-port            4                       # Cumulative packet size per connected master and slave (bytes)
system.iobus.pkt_size_system.ruby.l1_cntrl0.sequencer.mem-master-port::total          561                       # Cumulative packet size per connected master and slave (bytes)
system.iobus.pkt_size_system.ruby.l1_cntrl1.sequencer.mem-master-port::system.pc.south_bridge.ide.pio           46                       # Cumulative packet size per connected master and slave (bytes)
system.iobus.pkt_size_system.ruby.l1_cntrl1.sequencer.mem-master-port::system.pc.south_bridge.io_apic.pio           16                       # Cumulative packet size per connected master and slave (bytes)
system.iobus.pkt_size_system.ruby.l1_cntrl1.sequencer.mem-master-port::system.ruby.l1_cntrl1.sequencer.pio-slave-port          496                       # Cumulative packet size per connected master and slave (bytes)
system.iobus.pkt_size_system.ruby.l1_cntrl1.sequencer.mem-master-port::system.ruby.l1_cntrl2.sequencer.pio-slave-port            4                       # Cumulative packet size per connected master and slave (bytes)
system.iobus.pkt_size_system.ruby.l1_cntrl1.sequencer.mem-master-port::total          562                       # Cumulative packet size per connected master and slave (bytes)
system.iobus.pkt_size_system.ruby.l1_cntrl2.sequencer.mem-master-port::system.pc.south_bridge.ide.pio            6                       # Cumulative packet size per connected master and slave (bytes)
system.iobus.pkt_size_system.ruby.l1_cntrl2.sequencer.mem-master-port::system.ruby.l1_cntrl0.sequencer.pio-slave-port           12                       # Cumulative packet size per connected master and slave (bytes)
system.iobus.pkt_size_system.ruby.l1_cntrl2.sequencer.mem-master-port::system.ruby.l1_cntrl1.sequencer.pio-slave-port            8                       # Cumulative packet size per connected master and slave (bytes)
system.iobus.pkt_size_system.ruby.l1_cntrl2.sequencer.mem-master-port::system.ruby.l1_cntrl2.sequencer.pio-slave-port          532                       # Cumulative packet size per connected master and slave (bytes)
system.iobus.pkt_size_system.ruby.l1_cntrl2.sequencer.mem-master-port::system.ruby.l1_cntrl3.sequencer.pio-slave-port            4                       # Cumulative packet size per connected master and slave (bytes)
system.iobus.pkt_size_system.ruby.l1_cntrl2.sequencer.mem-master-port::total          562                       # Cumulative packet size per connected master and slave (bytes)
system.iobus.pkt_size_system.ruby.l1_cntrl3.sequencer.mem-master-port::system.pc.south_bridge.io_apic.pio           12                       # Cumulative packet size per connected master and slave (bytes)
system.iobus.pkt_size_system.ruby.l1_cntrl3.sequencer.mem-master-port::system.pc.com_1.pio           87                       # Cumulative packet size per connected master and slave (bytes)
system.iobus.pkt_size_system.ruby.l1_cntrl3.sequencer.mem-master-port::system.ruby.l1_cntrl0.sequencer.pio-slave-port            4                       # Cumulative packet size per connected master and slave (bytes)
system.iobus.pkt_size_system.ruby.l1_cntrl3.sequencer.mem-master-port::system.ruby.l1_cntrl3.sequencer.pio-slave-port          484                       # Cumulative packet size per connected master and slave (bytes)
system.iobus.pkt_size_system.ruby.l1_cntrl3.sequencer.mem-master-port::total          587                       # Cumulative packet size per connected master and slave (bytes)
system.iobus.pkt_size::total                     2292                       # Cumulative packet size per connected master and slave (bytes)
system.iobus.reqLayer2.occupancy                80500                       # Layer occupancy (ticks)
system.iobus.reqLayer2.utilization                0.0                       # Layer utilization (%)
system.iobus.reqLayer8.occupancy                20497                       # Layer occupancy (ticks)
system.iobus.reqLayer8.utilization                0.0                       # Layer utilization (%)
system.iobus.reqLayer12.occupancy              112500                       # Layer occupancy (ticks)
system.iobus.reqLayer12.utilization               0.0                       # Layer utilization (%)
system.iobus.reqLayer17.occupancy              331999                       # Layer occupancy (ticks)
system.iobus.reqLayer17.utilization               0.0                       # Layer utilization (%)
system.iobus.reqLayer18.occupancy              320497                       # Layer occupancy (ticks)
system.iobus.reqLayer18.utilization               0.0                       # Layer utilization (%)
system.iobus.reqLayer19.occupancy              302494                       # Layer occupancy (ticks)
system.iobus.reqLayer19.utilization               0.0                       # Layer utilization (%)
system.iobus.reqLayer20.occupancy              305500                       # Layer occupancy (ticks)
system.iobus.reqLayer20.utilization               0.0                       # Layer utilization (%)
system.iobus.respLayer0.occupancy                7998                       # Layer occupancy (ticks)
system.iobus.respLayer0.utilization               0.0                       # Layer utilization (%)
system.iobus.respLayer2.occupancy              213000                       # Layer occupancy (ticks)
system.iobus.respLayer2.utilization               0.0                       # Layer utilization (%)
system.iobus.respLayer4.occupancy              246000                       # Layer occupancy (ticks)
system.iobus.respLayer4.utilization               0.0                       # Layer utilization (%)
system.iobus.respLayer6.occupancy              220500                       # Layer occupancy (ticks)
system.iobus.respLayer6.utilization               0.0                       # Layer utilization (%)
system.iobus.respLayer8.occupancy              339500                       # Layer occupancy (ticks)
system.iobus.respLayer8.utilization               0.0                       # Layer utilization (%)
system.pc.south_bridge.ide.disks.dma_read_full_pages            0                       # Number of full page size DMA reads (not PRD).
system.pc.south_bridge.ide.disks.dma_read_bytes            0                       # Number of bytes transfered via DMA reads (not PRD).
system.pc.south_bridge.ide.disks.dma_read_txs            0                       # Number of DMA read transactions (not PRD).
system.pc.south_bridge.ide.disks.dma_write_full_pages           33                       # Number of full page size DMA writes.
system.pc.south_bridge.ide.disks.dma_write_bytes       135168                       # Number of bytes transfered via DMA writes.
system.pc.south_bridge.ide.disks.dma_write_txs           33                       # Number of DMA write transactions.
system.ruby.clk_domain.clock                      500                       # Clock period in ticks
system.ruby.outstanding_req_hist_seqr::bucket_size            1                      
system.ruby.outstanding_req_hist_seqr::max_bucket            9                      
system.ruby.outstanding_req_hist_seqr::samples    462014951                      
system.ruby.outstanding_req_hist_seqr::mean     1.000000                      
system.ruby.outstanding_req_hist_seqr::gmean     1.000000                      
system.ruby.outstanding_req_hist_seqr::stdev     0.000655                      
system.ruby.outstanding_req_hist_seqr    |           0      0.00%      0.00% |   462014753    100.00%    100.00% |         198      0.00%    100.00% |           0      0.00%    100.00% |           0      0.00%    100.00% |           0      0.00%    100.00% |           0      0.00%    100.00% |           0      0.00%    100.00% |           0      0.00%    100.00% |           0      0.00%    100.00%
system.ruby.outstanding_req_hist_seqr::total    462014951                      
system.ruby.latency_hist_seqr::bucket_size          128                      
system.ruby.latency_hist_seqr::max_bucket         1279                      
system.ruby.latency_hist_seqr::samples      462014951                      
system.ruby.latency_hist_seqr::mean          1.007951                      
system.ruby.latency_hist_seqr::gmean         1.001418                      
system.ruby.latency_hist_seqr::stdev         0.562797                      
system.ruby.latency_hist_seqr            |   462014292    100.00%    100.00% |         576      0.00%    100.00% |           7      0.00%    100.00% |          21      0.00%    100.00% |          43      0.00%    100.00% |          12      0.00%    100.00% |           0      0.00%    100.00% |           0      0.00%    100.00% |           0      0.00%    100.00% |           0      0.00%    100.00%
system.ruby.latency_hist_seqr::total        462014951                      
system.ruby.hit_latency_hist_seqr::bucket_size            2                      
system.ruby.hit_latency_hist_seqr::max_bucket           19                      
system.ruby.hit_latency_hist_seqr::samples    461990529                      
system.ruby.hit_latency_hist_seqr::mean      1.005062                      
system.ruby.hit_latency_hist_seqr::gmean     1.001214                      
system.ruby.hit_latency_hist_seqr::stdev     0.224922                      
system.ruby.hit_latency_hist_seqr        |   461756691     99.95%     99.95% |           0      0.00%     99.95% |           0      0.00%     99.95% |           0      0.00%     99.95% |           0      0.00%     99.95% |      233838      0.05%    100.00% |           0      0.00%    100.00% |           0      0.00%    100.00% |           0      0.00%    100.00% |           0      0.00%    100.00%
system.ruby.hit_latency_hist_seqr::total    461990529                      
system.ruby.miss_latency_hist_seqr::bucket_size          128                      
system.ruby.miss_latency_hist_seqr::max_bucket         1279                      
system.ruby.miss_latency_hist_seqr::samples        24422                      
system.ruby.miss_latency_hist_seqr::mean    55.667677                      
system.ruby.miss_latency_hist_seqr::gmean    46.476318                      
system.ruby.miss_latency_hist_seqr::stdev    45.247274                      
system.ruby.miss_latency_hist_seqr       |       23763     97.30%     97.30% |         576      2.36%     99.66% |           7      0.03%     99.69% |          21      0.09%     99.77% |          43      0.18%     99.95% |          12      0.05%    100.00% |           0      0.00%    100.00% |           0      0.00%    100.00% |           0      0.00%    100.00% |           0      0.00%    100.00%
system.ruby.miss_latency_hist_seqr::total        24422                      
system.ruby.L1Cache.incomplete_times_seqr           10                      
system.ruby.dir_cntrl0.probeFilter.demand_hits            0                       # Number of cache demand hits
system.ruby.dir_cntrl0.probeFilter.demand_misses            0                       # Number of cache demand misses
system.ruby.dir_cntrl0.probeFilter.demand_accesses            0                       # Number of cache demand accesses
system.ruby.l1_cntrl0.L1Dcache.demand_hits       439144                       # Number of cache demand hits
system.ruby.l1_cntrl0.L1Dcache.demand_misses        13239                       # Number of cache demand misses
[...]
system.ruby.L1Cache_Controller.O.L1_to_L2::total        29067                      
system.ruby.L1Cache_Controller.O.Trigger_L2_to_L1D |        2890     51.30%     51.30% |         223      3.96%     55.25% |        1769     31.40%     86.65% |         752     13.35%    100.00%
system.ruby.L1Cache_Controller.O.Trigger_L2_to_L1D::total         5634                      
system.ruby.L1Cache_Controller.O.Trigger_L2_to_L1I |       10854     47.91%     47.91% |        2745     12.12%     60.02% |        8093     35.72%     95.75% |         964      4.25%    100.00%
system.ruby.L1Cache_Controller.O.Trigger_L2_to_L1I::total        22656                      
system.ruby.L1Cache_Controller.O.Other_GETX |        1460     28.04%     28.04% |         780     14.98%     43.02% |         828     15.90%     58.92% |        2139     41.08%    100.00%
system.ruby.L1Cache_Controller.O.Other_GETX::total         5207                      
system.ruby.L1Cache_Controller.O.Other_GETS |        9325     64.69%     64.69% |         524      3.63%     68.32% |        1990     13.80%     82.12% |        2577     17.88%    100.00%
system.ruby.L1Cache_Controller.O.Other_GETS::total        14416                      
system.ruby.L1Cache_Controller.O.Merged_GETS |           0      0.00%      0.00% |           1    100.00%    100.00% |           0      0.00%    100.00% |           0      0.00%    100.00%
system.ruby.L1Cache_Controller.O.Merged_GETS::total            1                      
system.ruby.L1Cache_Controller.M.Load    |       43096      0.15%      0.15% |       75709      0.26%      0.41% |    28546372     99.40%     99.81% |       53379      0.19%    100.00%
system.ruby.L1Cache_Controller.M.Load::total     28718556                      
system.ruby.L1Cache_Controller.M.Ifetch  |       95469      0.04%      0.04% |      151815      0.06%      0.09% |   272161842     99.90%     99.99% |       29651      0.01%    100.00%
system.ruby.L1Cache_Controller.M.Ifetch::total    272438777                      
system.ruby.L1Cache_Controller.M.Store   |        1531     13.31%     13.31% |        4964     43.16%     56.47% |        3028     26.33%     82.80% |        1978     17.20%    100.00%
system.ruby.L1Cache_Controller.M.Store::total        11501                      
system.ruby.L1Cache_Controller.M.L2_Replacement |           6      1.33%      1.33% |          68     15.04%     16.37% |         374     82.74%     99.12% |           4      0.88%    100.00%
system.ruby.L1Cache_Controller.M.L2_Replacement::total          452                      
system.ruby.L1Cache_Controller.M.L1_to_L2 |        4104      1.75%      1.75% |        5881      2.50%      4.25% |      221558     94.24%     98.49% |        3558      1.51%    100.00%
system.ruby.L1Cache_Controller.M.L1_to_L2::total       235101                      
system.ruby.L1Cache_Controller.M.Trigger_L2_to_L1D |         760      0.48%      0.48% |        1655      1.04%      1.51% |      156066     97.87%     99.39% |         977      0.61%    100.00%
system.ruby.L1Cache_Controller.M.Trigger_L2_to_L1D::total       159458                      
system.ruby.L1Cache_Controller.M.Trigger_L2_to_L1I |        1565      2.53%      2.53% |        1393      2.26%      4.79% |       58744     95.12%     99.91% |          56      0.09%    100.00%
system.ruby.L1Cache_Controller.M.Trigger_L2_to_L1I::total        61758                      
system.ruby.L1Cache_Controller.M.Other_GETX |         373     18.18%     18.18% |         834     40.64%     58.82% |         665     32.41%     91.23% |         180      8.77%    100.00%
system.ruby.L1Cache_Controller.M.Other_GETX::total         2052                      
system.ruby.L1Cache_Controller.M.Other_GETS |        4017     33.39%     33.39% |        1410     11.72%     45.12% |        3030     25.19%     70.31% |        3572     29.69%    100.00%
system.ruby.L1Cache_Controller.M.Other_GETS::total        12029                      
system.ruby.L1Cache_Controller.M.Merged_GETS |          23     67.65%     67.65% |           3      8.82%     76.47% |           7     20.59%     97.06% |           1      2.94%    100.00%
system.ruby.L1Cache_Controller.M.Merged_GETS::total           34                      
system.ruby.L1Cache_Controller.MM.Load   |      265158      0.93%      0.93% |      478032      1.68%      2.61% |    27544061     96.59%     99.20% |      228384      0.80%    100.00%
system.ruby.L1Cache_Controller.MM.Load::total     28515635                      
system.ruby.L1Cache_Controller.MM.Store  |      296714      1.19%      1.19% |      552508      2.22%      3.42% |    23735771     95.53%     98.94% |      262147      1.06%    100.00%
system.ruby.L1Cache_Controller.MM.Store::total     24847140                      
system.ruby.L1Cache_Controller.MM.L2_Replacement |           5      0.69%      0.69% |         308     42.25%     42.94% |         410     56.24%     99.18% |           6      0.82%    100.00%
system.ruby.L1Cache_Controller.MM.L2_Replacement::total          729                      
system.ruby.L1Cache_Controller.MM.L1_to_L2 |       10951     11.26%     11.26% |       19863     20.42%     31.68% |       55784     57.35%     89.02% |       10678     10.98%    100.00%
system.ruby.L1Cache_Controller.MM.L1_to_L2::total        97276                      
system.ruby.L1Cache_Controller.MM.Trigger_L2_to_L1D |        7299     11.80%     11.80% |        7502     12.13%     23.94% |       42751     69.14%     93.07% |        4284      6.93%    100.00%
system.ruby.L1Cache_Controller.MM.Trigger_L2_to_L1D::total        61836                      
system.ruby.L1Cache_Controller.MM.Other_GETX |        3436     37.13%     37.13% |        1027     11.10%     48.22% |        4180     45.16%     93.39% |         612      6.61%    100.00%
system.ruby.L1Cache_Controller.MM.Other_GETX::total         9255                      
system.ruby.L1Cache_Controller.MM.Other_GETS |        3199     23.31%     23.31% |        2627     19.15%     42.46% |        6238     45.46%     87.92% |        1657     12.08%    100.00%
system.ruby.L1Cache_Controller.MM.Other_GETS::total        13721                      
system.ruby.L1Cache_Controller.MM.Merged_GETS |          32     52.46%     52.46% |           4      6.56%     59.02% |          20     32.79%     91.80% |           5      8.20%    100.00%
system.ruby.L1Cache_Controller.MM.Merged_GETS::total           61                      
system.ruby.L1Cache_Controller.SR.Load   |        1268      8.21%      8.21% |        5488     35.54%     43.76% |        7086     45.89%     89.65% |        1598     10.35%    100.00%
system.ruby.L1Cache_Controller.SR.Load::total        15440                      
system.ruby.L1Cache_Controller.SR.Ifetch |        8190      9.36%      9.36% |       23124     26.42%     35.77% |       45211     51.65%     87.42% |       11014     12.58%    100.00%
system.ruby.L1Cache_Controller.SR.Ifetch::total        87539                      
system.ruby.L1Cache_Controller.SR.Store  |         184     35.87%     35.87% |         135     26.32%     62.18% |         171     33.33%     95.52% |          23      4.48%    100.00%
system.ruby.L1Cache_Controller.SR.Store::total          513                      
system.ruby.L1Cache_Controller.OR.Load   |        2885     51.95%     51.95% |         217      3.91%     55.86% |        1699     30.60%     86.46% |         752     13.54%    100.00%
system.ruby.L1Cache_Controller.OR.Load::total         5553                      
system.ruby.L1Cache_Controller.OR.Ifetch |       10854     47.91%     47.91% |        2745     12.12%     60.02% |        8093     35.72%     95.75% |         964      4.25%    100.00%
system.ruby.L1Cache_Controller.OR.Ifetch::total        22656                      
system.ruby.L1Cache_Controller.OR.Store  |           5      6.17%      6.17% |           6      7.41%     13.58% |          70     86.42%    100.00% |           0      0.00%    100.00%
system.ruby.L1Cache_Controller.OR.Store::total           81                      
system.ruby.L1Cache_Controller.MR.Load   |         561      0.36%      0.36% |        1009      0.64%      1.00% |      155090     98.69%     99.69% |         492      0.31%    100.00%
system.ruby.L1Cache_Controller.MR.Load::total       157152                      
system.ruby.L1Cache_Controller.MR.Ifetch |        1565      2.53%      2.53% |        1393      2.26%      4.79% |       58744     95.12%     99.91% |          56      0.09%    100.00%
system.ruby.L1Cache_Controller.MR.Ifetch::total        61758                      
system.ruby.L1Cache_Controller.MR.Store  |         199      8.63%      8.63% |         646     28.01%     36.64% |         976     42.32%     78.97% |         485     21.03%    100.00%
system.ruby.L1Cache_Controller.MR.Store::total         2306                      
system.ruby.L1Cache_Controller.MMR.Load  |        1815     10.19%     10.19% |        4585     25.73%     35.92% |        9788     54.93%     90.85% |        1631      9.15%    100.00%
system.ruby.L1Cache_Controller.MMR.Load::total        17819                      
system.ruby.L1Cache_Controller.MMR.Store |        5484     12.46%     12.46% |        2917      6.63%     19.09% |       32963     74.89%     93.97% |        2653      6.03%    100.00%
system.ruby.L1Cache_Controller.MMR.Store::total        44017                      
system.ruby.L1Cache_Controller.IM.Ack    |        6018     11.27%     11.27% |       10455     19.57%     30.84% |       26190     49.04%     79.88% |       10747     20.12%    100.00%
system.ruby.L1Cache_Controller.IM.Ack::total        53410                      
system.ruby.L1Cache_Controller.IM.Data   |         397     30.87%     30.87% |         613     47.67%     78.54% |         110      8.55%     87.09% |         166     12.91%    100.00%
system.ruby.L1Cache_Controller.IM.Data::total         1286                      
system.ruby.L1Cache_Controller.IM.Exclusive_Data |        2856     11.45%     11.45% |        6377     25.58%     37.03% |       10312     41.36%     78.39% |        5389     21.61%    100.00%
system.ruby.L1Cache_Controller.IM.Exclusive_Data::total        24934                      
system.ruby.L1Cache_Controller.SM.Ack    |        1282     30.52%     30.52% |        1404     33.42%     63.94% |         992     23.61%     87.55% |         523     12.45%    100.00%
system.ruby.L1Cache_Controller.SM.Ack::total         4201                      
system.ruby.L1Cache_Controller.SM.Data   |         997     25.33%     25.33% |        1413     35.90%     61.23% |        1075     27.31%     88.54% |         451     11.46%    100.00%
system.ruby.L1Cache_Controller.SM.Data::total         3936                      
system.ruby.L1Cache_Controller.OM.Ack    |         132     13.21%     13.21% |         297     29.73%     42.94% |         501     50.15%     93.09% |          69      6.91%    100.00%
system.ruby.L1Cache_Controller.OM.Ack::total          999                      
system.ruby.L1Cache_Controller.OM.All_acks_no_sharers |          44     13.21%     13.21% |          99     29.73%     42.94% |         167     50.15%     93.09% |          23      6.91%    100.00%
system.ruby.L1Cache_Controller.OM.All_acks_no_sharers::total          333                      
system.ruby.L1Cache_Controller.ISM.Ack   |         930     19.51%     19.51% |        1981     41.56%     61.07% |        1292     27.10%     88.17% |         564     11.83%    100.00%
system.ruby.L1Cache_Controller.ISM.Ack::total         4767                      
system.ruby.L1Cache_Controller.ISM.All_acks_no_sharers |        1394     26.69%     26.69% |        2026     38.80%     65.49% |        1185     22.69%     88.18% |         617     11.82%    100.00%
system.ruby.L1Cache_Controller.ISM.All_acks_no_sharers::total         5222                      
system.ruby.L1Cache_Controller.M_W.Load  |          35     13.83%     13.83% |          74     29.25%     43.08% |         118     46.64%     89.72% |          26     10.28%    100.00%
system.ruby.L1Cache_Controller.M_W.Load::total          253                      
system.ruby.L1Cache_Controller.M_W.Store |           4      5.19%      5.19% |           7      9.09%     14.29% |          47     61.04%     75.32% |          19     24.68%    100.00%
system.ruby.L1Cache_Controller.M_W.Store::total           77                      
system.ruby.L1Cache_Controller.M_W.Ack   |        3311     25.48%     25.48% |        2967     22.83%     48.31% |        2958     22.76%     71.08% |        3758     28.92%    100.00%
system.ruby.L1Cache_Controller.M_W.Ack::total        12994                      
system.ruby.L1Cache_Controller.M_W.All_acks_no_sharers |        5151     15.70%     15.70% |        9600     29.26%     44.96% |       11426     34.83%     79.79% |        6630     20.21%    100.00%
system.ruby.L1Cache_Controller.M_W.All_acks_no_sharers::total        32807                      
system.ruby.L1Cache_Controller.MM_W.Load |           0      0.00%      0.00% |           0      0.00%      0.00% |           1    100.00%    100.00% |           0      0.00%    100.00%
system.ruby.L1Cache_Controller.MM_W.Load::total            1                      
system.ruby.L1Cache_Controller.MM_W.Store |         491     14.64%     14.64% |        1362     40.61%     55.25% |         798     23.79%     79.04% |         703     20.96%    100.00%
system.ruby.L1Cache_Controller.MM_W.Store::total         3354                      
system.ruby.L1Cache_Controller.MM_W.Ack  |        1532     13.15%     13.15% |        5050     43.34%     56.48% |        2751     23.61%     80.09% |        2320     19.91%    100.00%
system.ruby.L1Cache_Controller.MM_W.Ack::total        11653                      
system.ruby.L1Cache_Controller.MM_W.All_acks_no_sharers |        2860     11.43%     11.43% |        6384     25.52%     36.96% |       10359     41.42%     78.38% |        5408     21.62%    100.00%
system.ruby.L1Cache_Controller.MM_W.All_acks_no_sharers::total        25011                      
system.ruby.L1Cache_Controller.IS.Other_GETS |           0      0.00%      0.00% |           0      0.00%      0.00% |           0      0.00%      0.00% |           1    100.00%    100.00%
system.ruby.L1Cache_Controller.IS.Other_GETS::total            1                      
system.ruby.L1Cache_Controller.IS.Ack    |       12709     14.31%     14.31% |       28838     32.47%     46.78% |       32932     37.08%     83.86% |       14334     16.14%    100.00%
system.ruby.L1Cache_Controller.IS.Ack::total        88813                      
system.ruby.L1Cache_Controller.IS.Shared_Ack |         945     12.85%     12.85% |        3023     41.11%     53.96% |        1252     17.03%     70.99% |        2133     29.01%    100.00%
system.ruby.L1Cache_Controller.IS.Shared_Ack::total         7353                      
system.ruby.L1Cache_Controller.IS.Data   |           3      2.56%      2.56% |          42     35.90%     38.46% |          22     18.80%     57.26% |          50     42.74%    100.00%
system.ruby.L1Cache_Controller.IS.Data::total          117                      
system.ruby.L1Cache_Controller.IS.Shared_Data |        3987     15.02%     15.02% |       10049     37.86%     52.88% |        6068     22.86%     75.74% |        6438     24.26%    100.00%
system.ruby.L1Cache_Controller.IS.Shared_Data::total        26542                      
system.ruby.L1Cache_Controller.IS.Exclusive_Data |        5155     15.68%     15.68% |        9607     29.21%     44.89% |       11473     34.89%     79.78% |        6649     20.22%    100.00%
system.ruby.L1Cache_Controller.IS.Exclusive_Data::total        32884                      
system.ruby.L1Cache_Controller.SS.Load   |          47     16.55%     16.55% |         151     53.17%     69.72% |          37     13.03%     82.75% |          49     17.25%    100.00%
system.ruby.L1Cache_Controller.SS.Load::total          284                      
system.ruby.L1Cache_Controller.SS.Ifetch |         737      9.02%      9.02% |        3531     43.23%     52.26% |        1506     18.44%     70.70% |        2393     29.30%    100.00%
system.ruby.L1Cache_Controller.SS.Ifetch::total         8167                      
system.ruby.L1Cache_Controller.SS.Store  |           9     47.37%     47.37% |           3     15.79%     63.16% |           7     36.84%    100.00% |           0      0.00%    100.00%
system.ruby.L1Cache_Controller.SS.Store::total           19                      
system.ruby.L1Cache_Controller.SS.Ack    |        2394     14.04%     14.04% |        6337     37.17%     51.22% |        5570     32.67%     83.89% |        2746     16.11%    100.00%
system.ruby.L1Cache_Controller.SS.Ack::total        17047                      
system.ruby.L1Cache_Controller.SS.Shared_Ack |         731      6.15%      6.15% |        4824     40.57%     46.71% |        1012      8.51%     55.22% |        5325     44.78%    100.00%
system.ruby.L1Cache_Controller.SS.Shared_Ack::total        11892                      
system.ruby.L1Cache_Controller.SS.All_acks |        3990     14.97%     14.97% |       10089     37.85%     52.82% |        6090     22.85%     75.66% |        6488     24.34%    100.00%
system.ruby.L1Cache_Controller.SS.All_acks::total        26657                      
system.ruby.L1Cache_Controller.SS.All_acks_no_sharers |           0      0.00%      0.00% |           2    100.00%    100.00% |           0      0.00%    100.00% |           0      0.00%    100.00%
system.ruby.L1Cache_Controller.SS.All_acks_no_sharers::total            2                      
system.ruby.L1Cache_Controller.OI.Writeback_Ack |          27     13.11%     13.11% |          46     22.33%     35.44% |         123     59.71%     95.15% |          10      4.85%    100.00%
system.ruby.L1Cache_Controller.OI.Writeback_Ack::total          206                      
system.ruby.L1Cache_Controller.MI.Load   |           0      0.00%      0.00% |           0      0.00%      0.00% |           2    100.00%    100.00% |           0      0.00%    100.00%
system.ruby.L1Cache_Controller.MI.Load::total            2                      
system.ruby.L1Cache_Controller.MI.Store  |           0      0.00%      0.00% |           0      0.00%      0.00% |           2    100.00%    100.00% |           0      0.00%    100.00%
system.ruby.L1Cache_Controller.MI.Store::total            2                      
system.ruby.L1Cache_Controller.MI.Writeback_Ack |          11      0.93%      0.93% |         376     31.84%     32.77% |         784     66.38%     99.15% |          10      0.85%    100.00%
system.ruby.L1Cache_Controller.MI.Writeback_Ack::total         1181                      
system.ruby.L1Cache_Controller.ST.Complete_L2_to_L1 |        9642      9.32%      9.32% |       28747     27.78%     37.09% |       52468     50.70%     87.79% |       12635     12.21%    100.00%
system.ruby.L1Cache_Controller.ST.Complete_L2_to_L1::total       103492                      
system.ruby.L1Cache_Controller.OT.Complete_L2_to_L1 |       13744     48.58%     48.58% |        2968     10.49%     59.07% |        9862     34.86%     93.93% |        1716      6.07%    100.00%
system.ruby.L1Cache_Controller.OT.Complete_L2_to_L1::total        28290                      
system.ruby.L1Cache_Controller.MT.Complete_L2_to_L1 |        2325      1.05%      1.05% |        3048      1.38%      2.43% |      214810     97.10%     99.53% |        1033      0.47%    100.00%
system.ruby.L1Cache_Controller.MT.Complete_L2_to_L1::total       221216                      
system.ruby.L1Cache_Controller.MMT.Complete_L2_to_L1 |        7299     11.80%     11.80% |        7502     12.13%     23.94% |       42751     69.14%     93.07% |        4284      6.93%    100.00%
system.ruby.L1Cache_Controller.MMT.Complete_L2_to_L1::total        61836                      

---------- End Simulation Statistics   ----------
