
---------- Begin Simulation Statistics ----------
sim_seconds                                  3.050064                       # Number of seconds simulated
sim_ticks                                3050064491500                       # Number of ticks simulated
final_tick                               55954969184001                       # Number of ticks from beginning of simulation (restored from checkpoints and never reset)
sim_freq                                 1000000000000                       # Frequency of simulated ticks
host_inst_rate                                 128303                       # Simulator instruction rate (inst/s)
host_op_rate                                   215048                       # Simulator op (including micro ops) rate (op/s)
host_tick_rate                              255135287                       # Simulator tick rate (ticks/s)
host_mem_usage                                1843232                       # Number of bytes of host memory used
host_seconds                                 11954.70                       # Real time elapsed on the host
sim_insts                                  1533826336                       # Number of instructions simulated
sim_ops                                    2570831944                       # Number of ops (including micro ops) simulated
system.voltage_domain.voltage                       1                       # Voltage in Volts
system.clk_domain.clock                          1000                       # Clock period in ticks
system.mem_ctrls.bytes_read::ruby.dir_cntrl0     10268096                       # Number of bytes read from this memory
system.mem_ctrls.bytes_read::total           10268096                       # Number of bytes read from this memory
system.mem_ctrls.bytes_written::ruby.dir_cntrl0      1224384                       # Number of bytes written to this memory
system.mem_ctrls.bytes_written::total         1224384                       # Number of bytes written to this memory
system.mem_ctrls.num_reads::ruby.dir_cntrl0       160439                       # Number of read requests responded to by this memory
system.mem_ctrls.num_reads::total              160439                       # Number of read requests responded to by this memory
system.mem_ctrls.num_writes::ruby.dir_cntrl0        19131                       # Number of write requests responded to by this memory
system.mem_ctrls.num_writes::total              19131                       # Number of write requests responded to by this memory
system.mem_ctrls.bw_read::ruby.dir_cntrl0      3366518                       # Total read bandwidth from this memory (bytes/s)
system.mem_ctrls.bw_read::total               3366518                       # Total read bandwidth from this memory (bytes/s)
system.mem_ctrls.bw_write::ruby.dir_cntrl0       401429                       # Write bandwidth from this memory (bytes/s)
system.mem_ctrls.bw_write::total               401429                       # Write bandwidth from this memory (bytes/s)
system.mem_ctrls.bw_total::ruby.dir_cntrl0      3767947                       # Total bandwidth to/from this memory (bytes/s)
system.mem_ctrls.bw_total::total              3767947                       # Total bandwidth to/from this memory (bytes/s)
system.mem_ctrls.readReqs                      160439                       # Number of read requests accepted
system.mem_ctrls.writeReqs                      19131                       # Number of write requests accepted
system.mem_ctrls.readBursts                    160439                       # Number of DRAM read bursts, including those serviced by the write queue
system.mem_ctrls.writeBursts                    19131                       # Number of DRAM write bursts, including those merged in the write queue
system.mem_ctrls.bytesReadDRAM               10193152                       # Total number of bytes read from DRAM
system.mem_ctrls.bytesReadWrQ                   74944                       # Total number of bytes read from write queue
system.mem_ctrls.bytesWritten                 1216000                       # Total number of bytes written to DRAM
system.mem_ctrls.bytesReadSys                10268096                       # Total read bytes from the system interface side
system.mem_ctrls.bytesWrittenSys              1224384                       # Total written bytes from the system interface side
system.mem_ctrls.servicedByWrQ                   1171                       # Number of DRAM read bursts serviced by the write queue
system.mem_ctrls.mergedWrBursts                   123                       # Number of DRAM write bursts merged with an existing one
system.mem_ctrls.neitherReadNorWriteReqs            0                       # Number of requests that are neither read nor write
system.mem_ctrls.perBankRdBursts::0              9848                       # Per bank write bursts
system.mem_ctrls.perBankRdBursts::1             10199                       # Per bank write bursts
system.mem_ctrls.perBankRdBursts::2              9778                       # Per bank write bursts
system.mem_ctrls.perBankRdBursts::3              9333                       # Per bank write bursts
system.mem_ctrls.perBankRdBursts::4             11017                       # Per bank write bursts
system.mem_ctrls.perBankRdBursts::5             10450                       # Per bank write bursts
system.mem_ctrls.perBankRdBursts::6             10651                       # Per bank write bursts
system.mem_ctrls.perBankRdBursts::7             11034                       # Per bank write bursts
system.mem_ctrls.perBankRdBursts::8              9866                       # Per bank write bursts
system.mem_ctrls.perBankRdBursts::9             10708                       # Per bank write bursts
system.mem_ctrls.perBankRdBursts::10             9479                       # Per bank write bursts
system.mem_ctrls.perBankRdBursts::11             9088                       # Per bank write bursts
system.mem_ctrls.perBankRdBursts::12             8986                       # Per bank write bursts
system.mem_ctrls.perBankRdBursts::13             8920                       # Per bank write bursts
system.mem_ctrls.perBankRdBursts::14            10262                       # Per bank write bursts
system.mem_ctrls.perBankRdBursts::15             9649                       # Per bank write bursts
system.mem_ctrls.perBankWrBursts::0              1243                       # Per bank write bursts
system.mem_ctrls.perBankWrBursts::1              1521                       # Per bank write bursts
system.mem_ctrls.perBankWrBursts::2              1379                       # Per bank write bursts
system.mem_ctrls.perBankWrBursts::3               921                       # Per bank write bursts
system.mem_ctrls.perBankWrBursts::4              1299                       # Per bank write bursts
system.mem_ctrls.perBankWrBursts::5              1359                       # Per bank write bursts
system.mem_ctrls.perBankWrBursts::6              1312                       # Per bank write bursts
system.mem_ctrls.perBankWrBursts::7              1329                       # Per bank write bursts
system.mem_ctrls.perBankWrBursts::8               931                       # Per bank write bursts
system.mem_ctrls.perBankWrBursts::9              1240                       # Per bank write bursts
system.mem_ctrls.perBankWrBursts::10              799                       # Per bank write bursts
system.mem_ctrls.perBankWrBursts::11              771                       # Per bank write bursts
system.mem_ctrls.perBankWrBursts::12             1005                       # Per bank write bursts
system.mem_ctrls.perBankWrBursts::13              958                       # Per bank write bursts
system.mem_ctrls.perBankWrBursts::14             1594                       # Per bank write bursts
system.mem_ctrls.perBankWrBursts::15             1339                       # Per bank write bursts
system.mem_ctrls.numRdRetry                         0                       # Number of times read queue was full causing retry
system.mem_ctrls.numWrRetry                         0                       # Number of times write queue was full causing retry
system.mem_ctrls.totGap                  3050064407000                       # Total gap between requests
system.mem_ctrls.readPktSize::0                     0                       # Read request sizes (log2)
system.mem_ctrls.readPktSize::1                     0                       # Read request sizes (log2)
system.mem_ctrls.readPktSize::2                     0                       # Read request sizes (log2)
system.mem_ctrls.readPktSize::3                     0                       # Read request sizes (log2)
system.mem_ctrls.readPktSize::4                     0                       # Read request sizes (log2)
system.mem_ctrls.readPktSize::5                     0                       # Read request sizes (log2)
system.mem_ctrls.readPktSize::6                160439                       # Read request sizes (log2)
system.mem_ctrls.writePktSize::0                    0                       # Write request sizes (log2)
system.mem_ctrls.writePktSize::1                    0                       # Write request sizes (log2)
system.mem_ctrls.writePktSize::2                    0                       # Write request sizes (log2)
system.mem_ctrls.writePktSize::3                    0                       # Write request sizes (log2)
system.mem_ctrls.writePktSize::4                    0                       # Write request sizes (log2)
system.mem_ctrls.writePktSize::5                    0                       # Write request sizes (log2)
system.mem_ctrls.writePktSize::6                19131                       # Write request sizes (log2)
system.mem_ctrls.rdQLenPdf::0                  157443                       # What read queue length does an incoming req see
system.mem_ctrls.rdQLenPdf::1                    1806                       # What read queue length does an incoming req see
system.mem_ctrls.rdQLenPdf::2                      19                       # What read queue length does an incoming req see
system.mem_ctrls.rdQLenPdf::3                       0                       # What read queue length does an incoming req see
system.mem_ctrls.rdQLenPdf::4                       0                       # What read queue length does an incoming req see
system.mem_ctrls.rdQLenPdf::5                       0                       # What read queue length does an incoming req see
system.mem_ctrls.rdQLenPdf::6                       0                       # What read queue length does an incoming req see
system.mem_ctrls.rdQLenPdf::7                       0                       # What read queue length does an incoming req see
system.mem_ctrls.rdQLenPdf::8                       0                       # What read queue length does an incoming req see
system.mem_ctrls.rdQLenPdf::9                       0                       # What read queue length does an incoming req see
system.mem_ctrls.rdQLenPdf::10                      0                       # What read queue length does an incoming req see
system.mem_ctrls.rdQLenPdf::11                      0                       # What read queue length does an incoming req see
system.mem_ctrls.rdQLenPdf::12                      0                       # What read queue length does an incoming req see
system.mem_ctrls.rdQLenPdf::13                      0                       # What read queue length does an incoming req see
system.mem_ctrls.rdQLenPdf::14                      0                       # What read queue length does an incoming req see
system.mem_ctrls.rdQLenPdf::15                      0                       # What read queue length does an incoming req see
system.mem_ctrls.rdQLenPdf::16                      0                       # What read queue length does an incoming req see
system.mem_ctrls.rdQLenPdf::17                      0                       # What read queue length does an incoming req see
system.mem_ctrls.rdQLenPdf::18                      0                       # What read queue length does an incoming req see
system.mem_ctrls.rdQLenPdf::19                      0                       # What read queue length does an incoming req see
system.mem_ctrls.rdQLenPdf::20                      0                       # What read queue length does an incoming req see
system.mem_ctrls.rdQLenPdf::21                      0                       # What read queue length does an incoming req see
system.mem_ctrls.rdQLenPdf::22                      0                       # What read queue length does an incoming req see
system.mem_ctrls.rdQLenPdf::23                      0                       # What read queue length does an incoming req see
system.mem_ctrls.rdQLenPdf::24                      0                       # What read queue length does an incoming req see
system.mem_ctrls.rdQLenPdf::25                      0                       # What read queue length does an incoming req see
system.mem_ctrls.rdQLenPdf::26                      0                       # What read queue length does an incoming req see
system.mem_ctrls.rdQLenPdf::27                      0                       # What read queue length does an incoming req see
system.mem_ctrls.rdQLenPdf::28                      0                       # What read queue length does an incoming req see
system.mem_ctrls.rdQLenPdf::29                      0                       # What read queue length does an incoming req see
system.mem_ctrls.rdQLenPdf::30                      0                       # What read queue length does an incoming req see
system.mem_ctrls.rdQLenPdf::31                      0                       # What read queue length does an incoming req see
system.mem_ctrls.wrQLenPdf::0                       0                       # What write queue length does an incoming req see
system.mem_ctrls.wrQLenPdf::1                       0                       # What write queue length does an incoming req see
system.mem_ctrls.wrQLenPdf::2                       0                       # What write queue length does an incoming req see
system.mem_ctrls.wrQLenPdf::3                       0                       # What write queue length does an incoming req see
system.mem_ctrls.wrQLenPdf::4                       0                       # What write queue length does an incoming req see
system.mem_ctrls.wrQLenPdf::5                       0                       # What write queue length does an incoming req see
system.mem_ctrls.wrQLenPdf::6                       0                       # What write queue length does an incoming req see
system.mem_ctrls.wrQLenPdf::7                       0                       # What write queue length does an incoming req see
system.mem_ctrls.wrQLenPdf::8                       0                       # What write queue length does an incoming req see
system.mem_ctrls.wrQLenPdf::9                       0                       # What write queue length does an incoming req see
system.mem_ctrls.wrQLenPdf::10                      0                       # What write queue length does an incoming req see
system.mem_ctrls.wrQLenPdf::11                      0                       # What write queue length does an incoming req see
system.mem_ctrls.wrQLenPdf::12                      0                       # What write queue length does an incoming req see
system.mem_ctrls.wrQLenPdf::13                      0                       # What write queue length does an incoming req see
system.mem_ctrls.wrQLenPdf::14                      0                       # What write queue length does an incoming req see
system.mem_ctrls.wrQLenPdf::15                    196                       # What write queue length does an incoming req see
system.mem_ctrls.wrQLenPdf::16                    247                       # What write queue length does an incoming req see
system.mem_ctrls.wrQLenPdf::17                   1124                       # What write queue length does an incoming req see
system.mem_ctrls.wrQLenPdf::18                   1178                       # What write queue length does an incoming req see
system.mem_ctrls.wrQLenPdf::19                   1165                       # What write queue length does an incoming req see
system.mem_ctrls.wrQLenPdf::20                   1207                       # What write queue length does an incoming req see
system.mem_ctrls.wrQLenPdf::21                   1196                       # What write queue length does an incoming req see
system.mem_ctrls.wrQLenPdf::22                   1160                       # What write queue length does an incoming req see
system.mem_ctrls.wrQLenPdf::23                   1210                       # What write queue length does an incoming req see
system.mem_ctrls.wrQLenPdf::24                   1191                       # What write queue length does an incoming req see
system.mem_ctrls.wrQLenPdf::25                   1151                       # What write queue length does an incoming req see
system.mem_ctrls.wrQLenPdf::26                   1173                       # What write queue length does an incoming req see
system.mem_ctrls.wrQLenPdf::27                   1150                       # What write queue length does an incoming req see
system.mem_ctrls.wrQLenPdf::28                   1144                       # What write queue length does an incoming req see
system.mem_ctrls.wrQLenPdf::29                   1125                       # What write queue length does an incoming req see
system.mem_ctrls.wrQLenPdf::30                   1131                       # What write queue length does an incoming req see
system.mem_ctrls.wrQLenPdf::31                   1127                       # What write queue length does an incoming req see
system.mem_ctrls.wrQLenPdf::32                   1118                       # What write queue length does an incoming req see
system.mem_ctrls.wrQLenPdf::33                      4                       # What write queue length does an incoming req see
system.mem_ctrls.wrQLenPdf::34                      3                       # What write queue length does an incoming req see
system.mem_ctrls.wrQLenPdf::35                      3                       # What write queue length does an incoming req see
system.mem_ctrls.wrQLenPdf::36                      1                       # What write queue length does an incoming req see
system.mem_ctrls.wrQLenPdf::37                      1                       # What write queue length does an incoming req see
system.mem_ctrls.wrQLenPdf::38                      1                       # What write queue length does an incoming req see
system.mem_ctrls.wrQLenPdf::39                      1                       # What write queue length does an incoming req see
system.mem_ctrls.wrQLenPdf::40                      1                       # What write queue length does an incoming req see
system.mem_ctrls.wrQLenPdf::41                      0                       # What write queue length does an incoming req see
system.mem_ctrls.wrQLenPdf::42                      0                       # What write queue length does an incoming req see
system.mem_ctrls.wrQLenPdf::43                      0                       # What write queue length does an incoming req see
system.mem_ctrls.wrQLenPdf::44                      0                       # What write queue length does an incoming req see
system.mem_ctrls.wrQLenPdf::45                      0                       # What write queue length does an incoming req see
system.mem_ctrls.wrQLenPdf::46                      0                       # What write queue length does an incoming req see
system.mem_ctrls.wrQLenPdf::47                      0                       # What write queue length does an incoming req see
system.mem_ctrls.wrQLenPdf::48                      0                       # What write queue length does an incoming req see
system.mem_ctrls.wrQLenPdf::49                      0                       # What write queue length does an incoming req see
system.mem_ctrls.wrQLenPdf::50                      0                       # What write queue length does an incoming req see
system.mem_ctrls.wrQLenPdf::51                      0                       # What write queue length does an incoming req see
system.mem_ctrls.wrQLenPdf::52                      0                       # What write queue length does an incoming req see
system.mem_ctrls.wrQLenPdf::53                      0                       # What write queue length does an incoming req see
system.mem_ctrls.wrQLenPdf::54                      0                       # What write queue length does an incoming req see
system.mem_ctrls.wrQLenPdf::55                      0                       # What write queue length does an incoming req see
system.mem_ctrls.wrQLenPdf::56                      0                       # What write queue length does an incoming req see
system.mem_ctrls.wrQLenPdf::57                      0                       # What write queue length does an incoming req see
system.mem_ctrls.wrQLenPdf::58                      0                       # What write queue length does an incoming req see
system.mem_ctrls.wrQLenPdf::59                      0                       # What write queue length does an incoming req see
system.mem_ctrls.wrQLenPdf::60                      0                       # What write queue length does an incoming req see
system.mem_ctrls.wrQLenPdf::61                      0                       # What write queue length does an incoming req see
system.mem_ctrls.wrQLenPdf::62                      0                       # What write queue length does an incoming req see
system.mem_ctrls.wrQLenPdf::63                      0                       # What write queue length does an incoming req see
system.mem_ctrls.bytesPerActivate::samples        42564                       # Bytes accessed per row activation
system.mem_ctrls.bytesPerActivate::mean    268.051499                       # Bytes accessed per row activation
system.mem_ctrls.bytesPerActivate::gmean   143.771598                       # Bytes accessed per row activation
system.mem_ctrls.bytesPerActivate::stdev   339.626014                       # Bytes accessed per row activation
system.mem_ctrls.bytesPerActivate::0-127        21871     51.38%     51.38% # Bytes accessed per row activation
system.mem_ctrls.bytesPerActivate::128-255         9110     21.40%     72.79% # Bytes accessed per row activation
system.mem_ctrls.bytesPerActivate::256-383         2434      5.72%     78.51% # Bytes accessed per row activation
system.mem_ctrls.bytesPerActivate::384-511         1239      2.91%     81.42% # Bytes accessed per row activation
system.mem_ctrls.bytesPerActivate::512-639          703      1.65%     83.07% # Bytes accessed per row activation
system.mem_ctrls.bytesPerActivate::640-767          459      1.08%     84.15% # Bytes accessed per row activation
system.mem_ctrls.bytesPerActivate::768-895          384      0.90%     85.05% # Bytes accessed per row activation
system.mem_ctrls.bytesPerActivate::896-1023          327      0.77%     85.82% # Bytes accessed per row activation
system.mem_ctrls.bytesPerActivate::1024-1151         6037     14.18%    100.00% # Bytes accessed per row activation
system.mem_ctrls.bytesPerActivate::total        42564                       # Bytes accessed per row activation
system.mem_ctrls.rdPerTurnAround::samples         1118                       # Reads before turning the bus around for writes
system.mem_ctrls.rdPerTurnAround::mean     142.645796                       # Reads before turning the bus around for writes
system.mem_ctrls.rdPerTurnAround::stdev   1152.305363                       # Reads before turning the bus around for writes
system.mem_ctrls.rdPerTurnAround::0-2047         1109     99.19%     99.19% # Reads before turning the bus around for writes
system.mem_ctrls.rdPerTurnAround::2048-4095            2      0.18%     99.37% # Reads before turning the bus around for writes
system.mem_ctrls.rdPerTurnAround::4096-6143            2      0.18%     99.55% # Reads before turning the bus around for writes
system.mem_ctrls.rdPerTurnAround::6144-8191            1      0.09%     99.64% # Reads before turning the bus around for writes
system.mem_ctrls.rdPerTurnAround::8192-10239            3      0.27%     99.91% # Reads before turning the bus around for writes
system.mem_ctrls.rdPerTurnAround::32768-34815            1      0.09%    100.00% # Reads before turning the bus around for writes
system.mem_ctrls.rdPerTurnAround::total          1118                       # Reads before turning the bus around for writes
system.mem_ctrls.wrPerTurnAround::samples         1118                       # Writes before turning the bus around for reads
system.mem_ctrls.wrPerTurnAround::mean      16.994633                       # Writes before turning the bus around for reads
system.mem_ctrls.wrPerTurnAround::gmean     16.846976                       # Writes before turning the bus around for reads
system.mem_ctrls.wrPerTurnAround::stdev      2.502276                       # Writes before turning the bus around for reads
system.mem_ctrls.wrPerTurnAround::16              907     81.13%     81.13% # Writes before turning the bus around for reads
system.mem_ctrls.wrPerTurnAround::17               10      0.89%     82.02% # Writes before turning the bus around for reads
system.mem_ctrls.wrPerTurnAround::18               73      6.53%     88.55% # Writes before turning the bus around for reads
system.mem_ctrls.wrPerTurnAround::19                1      0.09%     88.64% # Writes before turning the bus around for reads
system.mem_ctrls.wrPerTurnAround::21               30      2.68%     91.32% # Writes before turning the bus around for reads
system.mem_ctrls.wrPerTurnAround::22               22      1.97%     93.29% # Writes before turning the bus around for reads
system.mem_ctrls.wrPerTurnAround::23                4      0.36%     93.65% # Writes before turning the bus around for reads
system.mem_ctrls.wrPerTurnAround::24               46      4.11%     97.76% # Writes before turning the bus around for reads
system.mem_ctrls.wrPerTurnAround::25                9      0.81%     98.57% # Writes before turning the bus around for reads
system.mem_ctrls.wrPerTurnAround::26                2      0.18%     98.75% # Writes before turning the bus around for reads
system.mem_ctrls.wrPerTurnAround::28               11      0.98%     99.73% # Writes before turning the bus around for reads
system.mem_ctrls.wrPerTurnAround::29                2      0.18%     99.91% # Writes before turning the bus around for reads
system.mem_ctrls.wrPerTurnAround::32                1      0.09%    100.00% # Writes before turning the bus around for reads
system.mem_ctrls.wrPerTurnAround::total          1118                       # Writes before turning the bus around for reads
system.mem_ctrls.totQLat                   1012840988                       # Total ticks spent queuing
system.mem_ctrls.totMemAccLat              3999115988                       # Total ticks spent from burst creation until serviced by the DRAM
system.mem_ctrls.totBusLat                  796340000                       # Total ticks spent in databus transfers
system.mem_ctrls.avgQLat                      6359.35                       # Average queueing delay per DRAM burst
system.mem_ctrls.avgBusLat                    5000.00                       # Average bus latency per DRAM burst
system.mem_ctrls.avgMemAccLat                25109.35                       # Average memory access latency per DRAM burst
system.mem_ctrls.avgRdBW                         3.34                       # Average DRAM read bandwidth in MiByte/s
system.mem_ctrls.avgWrBW                         0.40                       # Average achieved write bandwidth in MiByte/s
system.mem_ctrls.avgRdBWSys                      3.37                       # Average system read bandwidth in MiByte/s
system.mem_ctrls.avgWrBWSys                      0.40                       # Average system write bandwidth in MiByte/s
system.mem_ctrls.peakBW                      12800.00                       # Theoretical peak bandwidth in MiByte/s
system.mem_ctrls.busUtil                         0.03                       # Data bus utilization in percentage
system.mem_ctrls.busUtilRead                     0.03                       # Data bus utilization in percentage for reads
system.mem_ctrls.busUtilWrite                    0.00                       # Data bus utilization in percentage for writes
system.mem_ctrls.avgRdQLen                       1.00                       # Average read queue length when enqueuing
system.mem_ctrls.avgWrQLen                      25.13                       # Average write queue length when enqueuing
system.mem_ctrls.readRowHits                   126514                       # Number of row buffer hits during reads
system.mem_ctrls.writeRowHits                    9190                       # Number of row buffer hits during writes
system.mem_ctrls.readRowHitRate                 79.43                       # Row buffer hit rate for reads
system.mem_ctrls.writeRowHitRate                48.35                       # Row buffer hit rate for writes
system.mem_ctrls.avgGap                   16985378.44                       # Average gap between requests
system.mem_ctrls.pageHitRate                    76.12                       # Row buffer hit rate, read and write combined
system.mem_ctrls_0.actEnergy                183193920                       # Energy for activate commands per rank (pJ)
system.mem_ctrls_0.preEnergy                 99957000                       # Energy for precharge commands per rank (pJ)
system.mem_ctrls_0.readEnergy               709932600                       # Energy for read commands per rank (pJ)
system.mem_ctrls_0.writeEnergy               67268880                       # Energy for write commands per rank (pJ)
system.mem_ctrls_0.refreshEnergy         199470963120                       # Energy for refresh commands per rank (pJ)
system.mem_ctrls_0.actBackEnergy          91943546760                       # Energy for active background per rank (pJ)
system.mem_ctrls_0.preBackEnergy         1751734409250                       # Energy for precharge background per rank (pJ)
system.mem_ctrls_0.totalEnergy           2044209271530                       # Total energy per rank (pJ)
system.mem_ctrls_0.averagePower            669.359585                       # Core power per rank (mW)
system.mem_ctrls_0.memoryStateTime::IDLE 2912296287750                       # Time in different power states
system.mem_ctrls_0.memoryStateTime::REF  101848500000                       # Time in different power states
system.mem_ctrls_0.memoryStateTime::PRE_PDN            0                       # Time in different power states
system.mem_ctrls_0.memoryStateTime::ACT   35919952750                       # Time in different power states
system.mem_ctrls_0.memoryStateTime::ACT_PDN            0                       # Time in different power states
system.mem_ctrls_1.actEnergy                168701400                       # Energy for activate commands per rank (pJ)
system.mem_ctrls_1.preEnergy                 92049375                       # Energy for precharge commands per rank (pJ)
system.mem_ctrls_1.readEnergy               663858000                       # Energy for read commands per rank (pJ)
system.mem_ctrls_1.writeEnergy               56058480                       # Energy for write commands per rank (pJ)
system.mem_ctrls_1.refreshEnergy         199470963120                       # Energy for refresh commands per rank (pJ)
system.mem_ctrls_1.actBackEnergy          90799791030                       # Energy for active background per rank (pJ)
system.mem_ctrls_1.preBackEnergy         1752737703750                       # Energy for precharge background per rank (pJ)
system.mem_ctrls_1.totalEnergy           2043989125155                       # Total energy per rank (pJ)
system.mem_ctrls_1.averagePower            669.287500                       # Core power per rank (mW)
system.mem_ctrls_1.memoryStateTime::IDLE 2914233881500                       # Time in different power states
system.mem_ctrls_1.memoryStateTime::REF  101848500000                       # Time in different power states
system.mem_ctrls_1.memoryStateTime::PRE_PDN            0                       # Time in different power states
system.mem_ctrls_1.memoryStateTime::ACT   33986399750                       # Time in different power states
system.mem_ctrls_1.memoryStateTime::ACT_PDN            0                       # Time in different power states
system.cpu_voltage_domain.voltage                   1                       # Voltage in Volts
system.cpu_clk_domain.clock                       500                       # Clock period in ticks
system.cpu0.apic_clk_domain.clock                8000                       # Clock period in ticks
system.cpu0.numCycles                      6100128983                       # number of cpu cycles simulated
system.cpu0.numWorkItemsStarted                     0                       # number of work items this cpu started
system.cpu0.numWorkItemsCompleted                   0                       # number of work items this cpu completed
system.cpu0.kern.inst.arm                           0                       # number of arm instructions executed
system.cpu0.kern.inst.quiesce                       0                       # number of quiesce instructions executed
system.cpu0.committedInsts                 1476311608                       # Number of instructions committed
system.cpu0.committedOps                   2466989249                       # Number of ops (including micro ops) committed
system.cpu0.num_int_alu_accesses           1881867958                       # Number of integer alu accesses
system.cpu0.num_fp_alu_accesses             945947461                       # Number of float alu accesses
system.cpu0.num_func_calls                   34364469                       # number of times a function call or return occured
system.cpu0.num_conditional_control_insts    165766547                       # number of instructions that are conditional controls
system.cpu0.num_int_insts                  1881867958                       # number of integer instructions
system.cpu0.num_fp_insts                    945947461                       # number of float instructions
system.cpu0.num_int_register_reads         3990626361                       # number of times the integer registers were read
system.cpu0.num_int_register_writes        1279551870                       # number of times the integer registers were written
system.cpu0.num_fp_register_reads          1502755492                       # number of times the floating registers were read
system.cpu0.num_fp_register_writes          775539898                       # number of times the floating registers were written
system.cpu0.num_cc_register_reads          1393877553                       # number of times the CC registers were read
system.cpu0.num_cc_register_writes          529030610                       # number of times the CC registers were written
system.cpu0.num_mem_refs                    626083987                       # number of memory refs
system.cpu0.num_load_insts                  465656337                       # Number of load instructions
system.cpu0.num_store_insts                 160427650                       # Number of store instructions
system.cpu0.num_idle_cycles              173867551.001943                       # Number of idle cycles
system.cpu0.num_busy_cycles              5926261431.998057                       # Number of busy cycles
system.cpu0.not_idle_fraction                0.971498                       # Percentage of non-idle cycles
system.cpu0.idle_fraction                    0.028502                       # Percentage of idle cycles
system.cpu0.Branches                        223598461                       # Number of branches fetched
system.cpu0.op_class::No_OpClass              3267947      0.13%      0.13% # Class of executed instruction
system.cpu0.op_class::IntAlu               1423150395     57.69%     57.82% # Class of executed instruction
system.cpu0.op_class::IntMult                 4499403      0.18%     58.00% # Class of executed instruction
system.cpu0.op_class::IntDiv                 18800549      0.76%     58.76% # Class of executed instruction
system.cpu0.op_class::FloatAdd              390176823     15.82%     74.58% # Class of executed instruction
system.cpu0.op_class::FloatCmp                      0      0.00%     74.58% # Class of executed instruction
system.cpu0.op_class::FloatCvt                      0      0.00%     74.58% # Class of executed instruction
system.cpu0.op_class::FloatMult                     0      0.00%     74.58% # Class of executed instruction
system.cpu0.op_class::FloatDiv                1010280      0.04%     74.62% # Class of executed instruction
system.cpu0.op_class::FloatSqrt                     0      0.00%     74.62% # Class of executed instruction
system.cpu0.op_class::SimdAdd                       0      0.00%     74.62% # Class of executed instruction
system.cpu0.op_class::SimdAddAcc                    0      0.00%     74.62% # Class of executed instruction
system.cpu0.op_class::SimdAlu                       0      0.00%     74.62% # Class of executed instruction
system.cpu0.op_class::SimdCmp                       0      0.00%     74.62% # Class of executed instruction
system.cpu0.op_class::SimdCvt                       0      0.00%     74.62% # Class of executed instruction
system.cpu0.op_class::SimdMisc                      0      0.00%     74.62% # Class of executed instruction
system.cpu0.op_class::SimdMult                      0      0.00%     74.62% # Class of executed instruction
system.cpu0.op_class::SimdMultAcc                   0      0.00%     74.62% # Class of executed instruction
system.cpu0.op_class::SimdShift                     0      0.00%     74.62% # Class of executed instruction
system.cpu0.op_class::SimdShiftAcc                  0      0.00%     74.62% # Class of executed instruction
system.cpu0.op_class::SimdSqrt                      0      0.00%     74.62% # Class of executed instruction
system.cpu0.op_class::SimdFloatAdd                  0      0.00%     74.62% # Class of executed instruction
system.cpu0.op_class::SimdFloatAlu                  0      0.00%     74.62% # Class of executed instruction
system.cpu0.op_class::SimdFloatCmp                  0      0.00%     74.62% # Class of executed instruction
system.cpu0.op_class::SimdFloatCvt                  0      0.00%     74.62% # Class of executed instruction
system.cpu0.op_class::SimdFloatDiv                  0      0.00%     74.62% # Class of executed instruction
system.cpu0.op_class::SimdFloatMisc                 0      0.00%     74.62% # Class of executed instruction
system.cpu0.op_class::SimdFloatMult                 0      0.00%     74.62% # Class of executed instruction
system.cpu0.op_class::SimdFloatMultAcc              0      0.00%     74.62% # Class of executed instruction
system.cpu0.op_class::SimdFloatSqrt                 0      0.00%     74.62% # Class of executed instruction
system.cpu0.op_class::MemRead               465656337     18.88%     93.50% # Class of executed instruction
system.cpu0.op_class::MemWrite              160427650      6.50%    100.00% # Class of executed instruction
system.cpu0.op_class::IprAccess                     0      0.00%    100.00% # Class of executed instruction
system.cpu0.op_class::InstPrefetch                  0      0.00%    100.00% # Class of executed instruction
system.cpu0.op_class::total                2466989384                       # Class of executed instruction
system.cpu1.apic_clk_domain.clock                8000                       # Clock period in ticks
system.cpu1.numCycles                      6102358339                       # number of cpu cycles simulated
system.cpu1.numWorkItemsStarted                     0                       # number of work items this cpu started
system.cpu1.numWorkItemsCompleted                   0                       # number of work items this cpu completed
system.cpu1.kern.inst.arm                           0                       # number of arm instructions executed
system.cpu1.kern.inst.quiesce                       0                       # number of quiesce instructions executed
system.cpu1.committedInsts                    4373313                       # Number of instructions committed
system.cpu1.committedOps                      9017261                       # Number of ops (including micro ops) committed
system.cpu1.num_int_alu_accesses              8853319                       # Number of integer alu accesses
system.cpu1.num_fp_alu_accesses                     0                       # Number of float alu accesses
system.cpu1.num_func_calls                     219681                       # number of times a function call or return occured
system.cpu1.num_conditional_control_insts       756985                       # number of instructions that are conditional controls
system.cpu1.num_int_insts                     8853319                       # number of integer instructions
system.cpu1.num_fp_insts                            0                       # number of float instructions
system.cpu1.num_int_register_reads           17423627                       # number of times the integer registers were read
system.cpu1.num_int_register_writes           7293192                       # number of times the integer registers were written
system.cpu1.num_fp_register_reads                   0                       # number of times the floating registers were read
system.cpu1.num_fp_register_writes                  0                       # number of times the floating registers were written
system.cpu1.num_cc_register_reads             5667983                       # number of times the CC registers were read
system.cpu1.num_cc_register_writes            2980804                       # number of times the CC registers were written
system.cpu1.num_mem_refs                      1877665                       # number of memory refs
system.cpu1.num_load_insts                    1204446                       # Number of load instructions
system.cpu1.num_store_insts                    673219                       # Number of store instructions
system.cpu1.num_idle_cycles              6084627779.584696                       # Number of idle cycles
system.cpu1.num_busy_cycles              17730559.415304                       # Number of busy cycles
system.cpu1.not_idle_fraction                0.002906                       # Percentage of non-idle cycles
system.cpu1.idle_fraction                    0.997094                       # Percentage of idle cycles
system.cpu1.Branches                          1046420                       # Number of branches fetched
system.cpu1.op_class::No_OpClass               109175      1.21%      1.21% # Class of executed instruction
system.cpu1.op_class::IntAlu                  6983436     77.45%     78.66% # Class of executed instruction
system.cpu1.op_class::IntMult                   16748      0.19%     78.84% # Class of executed instruction
system.cpu1.op_class::IntDiv                    30240      0.34%     79.18% # Class of executed instruction
system.cpu1.op_class::FloatAdd                      0      0.00%     79.18% # Class of executed instruction
system.cpu1.op_class::FloatCmp                      0      0.00%     79.18% # Class of executed instruction
system.cpu1.op_class::FloatCvt                      0      0.00%     79.18% # Class of executed instruction
system.cpu1.op_class::FloatMult                     0      0.00%     79.18% # Class of executed instruction
system.cpu1.op_class::FloatDiv                      0      0.00%     79.18% # Class of executed instruction
system.cpu1.op_class::FloatSqrt                     0      0.00%     79.18% # Class of executed instruction
system.cpu1.op_class::SimdAdd                       0      0.00%     79.18% # Class of executed instruction
system.cpu1.op_class::SimdAddAcc                    0      0.00%     79.18% # Class of executed instruction
system.cpu1.op_class::SimdAlu                       0      0.00%     79.18% # Class of executed instruction
system.cpu1.op_class::SimdCmp                       0      0.00%     79.18% # Class of executed instruction
system.cpu1.op_class::SimdCvt                       0      0.00%     79.18% # Class of executed instruction
system.cpu1.op_class::SimdMisc                      0      0.00%     79.18% # Class of executed instruction
system.cpu1.op_class::SimdMult                      0      0.00%     79.18% # Class of executed instruction
system.cpu1.op_class::SimdMultAcc                   0      0.00%     79.18% # Class of executed instruction
system.cpu1.op_class::SimdShift                     0      0.00%     79.18% # Class of executed instruction
system.cpu1.op_class::SimdShiftAcc                  0      0.00%     79.18% # Class of executed instruction
system.cpu1.op_class::SimdSqrt                      0      0.00%     79.18% # Class of executed instruction
system.cpu1.op_class::SimdFloatAdd                  0      0.00%     79.18% # Class of executed instruction
system.cpu1.op_class::SimdFloatAlu                  0      0.00%     79.18% # Class of executed instruction
system.cpu1.op_class::SimdFloatCmp                  0      0.00%     79.18% # Class of executed instruction
system.cpu1.op_class::SimdFloatCvt                  0      0.00%     79.18% # Class of executed instruction
system.cpu1.op_class::SimdFloatDiv                  0      0.00%     79.18% # Class of executed instruction
system.cpu1.op_class::SimdFloatMisc                 0      0.00%     79.18% # Class of executed instruction
system.cpu1.op_class::SimdFloatMult                 0      0.00%     79.18% # Class of executed instruction
system.cpu1.op_class::SimdFloatMultAcc              0      0.00%     79.18% # Class of executed instruction
system.cpu1.op_class::SimdFloatSqrt                 0      0.00%     79.18% # Class of executed instruction
system.cpu1.op_class::MemRead                 1204446     13.36%     92.53% # Class of executed instruction
system.cpu1.op_class::MemWrite                 673219      7.47%    100.00% # Class of executed instruction
system.cpu1.op_class::IprAccess                     0      0.00%    100.00% # Class of executed instruction
system.cpu1.op_class::InstPrefetch                  0      0.00%    100.00% # Class of executed instruction
system.cpu1.op_class::total                   9017264                       # Class of executed instruction
system.cpu2.apic_clk_domain.clock                8000                       # Clock period in ticks
system.cpu2.numCycles                      6100107476                       # number of cpu cycles simulated
system.cpu2.numWorkItemsStarted                     0                       # number of work items this cpu started
system.cpu2.numWorkItemsCompleted                   0                       # number of work items this cpu completed
system.cpu2.kern.inst.arm                           0                       # number of arm instructions executed
system.cpu2.kern.inst.quiesce                       0                       # number of quiesce instructions executed
system.cpu2.committedInsts                   48764813                       # Number of instructions committed
system.cpu2.committedOps                     85958279                       # Number of ops (including micro ops) committed
system.cpu2.num_int_alu_accesses             75436106                       # Number of integer alu accesses
system.cpu2.num_fp_alu_accesses              19656007                       # Number of float alu accesses
system.cpu2.num_func_calls                    1295986                       # number of times a function call or return occured
system.cpu2.num_conditional_control_insts      6491531                       # number of instructions that are conditional controls
system.cpu2.num_int_insts                    75436106                       # number of integer instructions
system.cpu2.num_fp_insts                     19656007                       # number of float instructions
system.cpu2.num_int_register_reads          154585257                       # number of times the integer registers were read
system.cpu2.num_int_register_writes          56322668                       # number of times the integer registers were written
system.cpu2.num_fp_register_reads            27213054                       # number of times the floating registers were read
system.cpu2.num_fp_register_writes           14482919                       # number of times the floating registers were written
system.cpu2.num_cc_register_reads            58218141                       # number of times the CC registers were read
system.cpu2.num_cc_register_writes           23661414                       # number of times the CC registers were written
system.cpu2.num_mem_refs                     20405777                       # number of memory refs
system.cpu2.num_load_insts                   13778293                       # Number of load instructions
system.cpu2.num_store_insts                   6627484                       # Number of store instructions
system.cpu2.num_idle_cycles              5916116386.740952                       # Number of idle cycles
system.cpu2.num_busy_cycles              183991089.259048                       # Number of busy cycles
system.cpu2.not_idle_fraction                0.030162                       # Percentage of non-idle cycles
system.cpu2.idle_fraction                    0.969838                       # Percentage of idle cycles
system.cpu2.Branches                          8763752                       # Number of branches fetched
system.cpu2.op_class::No_OpClass               216207      0.25%      0.25% # Class of executed instruction
system.cpu2.op_class::IntAlu                 56274597     65.47%     65.72% # Class of executed instruction
system.cpu2.op_class::IntMult                  243761      0.28%     66.00% # Class of executed instruction
system.cpu2.op_class::IntDiv                   842665      0.98%     66.98% # Class of executed instruction
system.cpu2.op_class::FloatAdd                7917526      9.21%     76.19% # Class of executed instruction
system.cpu2.op_class::FloatCmp                      0      0.00%     76.19% # Class of executed instruction
system.cpu2.op_class::FloatCvt                      0      0.00%     76.19% # Class of executed instruction
system.cpu2.op_class::FloatMult                     0      0.00%     76.19% # Class of executed instruction
system.cpu2.op_class::FloatDiv                  57876      0.07%     76.26% # Class of executed instruction
system.cpu2.op_class::FloatSqrt                     0      0.00%     76.26% # Class of executed instruction
system.cpu2.op_class::SimdAdd                       0      0.00%     76.26% # Class of executed instruction
system.cpu2.op_class::SimdAddAcc                    0      0.00%     76.26% # Class of executed instruction
system.cpu2.op_class::SimdAlu                       0      0.00%     76.26% # Class of executed instruction
system.cpu2.op_class::SimdCmp                       0      0.00%     76.26% # Class of executed instruction
system.cpu2.op_class::SimdCvt                       0      0.00%     76.26% # Class of executed instruction
system.cpu2.op_class::SimdMisc                      0      0.00%     76.26% # Class of executed instruction
system.cpu2.op_class::SimdMult                      0      0.00%     76.26% # Class of executed instruction
system.cpu2.op_class::SimdMultAcc                   0      0.00%     76.26% # Class of executed instruction
system.cpu2.op_class::SimdShift                     0      0.00%     76.26% # Class of executed instruction
system.cpu2.op_class::SimdShiftAcc                  0      0.00%     76.26% # Class of executed instruction
system.cpu2.op_class::SimdSqrt                      0      0.00%     76.26% # Class of executed instruction
system.cpu2.op_class::SimdFloatAdd                  0      0.00%     76.26% # Class of executed instruction
system.cpu2.op_class::SimdFloatAlu                  0      0.00%     76.26% # Class of executed instruction
system.cpu2.op_class::SimdFloatCmp                  0      0.00%     76.26% # Class of executed instruction
system.cpu2.op_class::SimdFloatCvt                  0      0.00%     76.26% # Class of executed instruction
system.cpu2.op_class::SimdFloatDiv                  0      0.00%     76.26% # Class of executed instruction
system.cpu2.op_class::SimdFloatMisc                 0      0.00%     76.26% # Class of executed instruction
system.cpu2.op_class::SimdFloatMult                 0      0.00%     76.26% # Class of executed instruction
system.cpu2.op_class::SimdFloatMultAcc              0      0.00%     76.26% # Class of executed instruction
system.cpu2.op_class::SimdFloatSqrt                 0      0.00%     76.26% # Class of executed instruction
system.cpu2.op_class::MemRead                13778293     16.03%     92.29% # Class of executed instruction
system.cpu2.op_class::MemWrite                6627484      7.71%    100.00% # Class of executed instruction
system.cpu2.op_class::IprAccess                     0      0.00%    100.00% # Class of executed instruction
system.cpu2.op_class::InstPrefetch                  0      0.00%    100.00% # Class of executed instruction
system.cpu2.op_class::total                  85958409                       # Class of executed instruction
system.cpu3.apic_clk_domain.clock                8000                       # Clock period in ticks
system.cpu3.numCycles                      6101142621                       # number of cpu cycles simulated
system.cpu3.numWorkItemsStarted                     0                       # number of work items this cpu started
system.cpu3.numWorkItemsCompleted                   0                       # number of work items this cpu completed
system.cpu3.kern.inst.arm                           0                       # number of arm instructions executed
system.cpu3.kern.inst.quiesce                       0                       # number of quiesce instructions executed
system.cpu3.committedInsts                    2803432                       # Number of instructions committed
system.cpu3.committedOps                      5940897                       # Number of ops (including micro ops) committed
system.cpu3.num_int_alu_accesses              5824828                       # Number of integer alu accesses
system.cpu3.num_fp_alu_accesses                    50                       # Number of float alu accesses
system.cpu3.num_func_calls                     152479                       # number of times a function call or return occured
system.cpu3.num_conditional_control_insts       493784                       # number of instructions that are conditional controls
system.cpu3.num_int_insts                     5824828                       # number of integer instructions
system.cpu3.num_fp_insts                           50                       # number of float instructions
system.cpu3.num_int_register_reads           11498559                       # number of times the integer registers were read
system.cpu3.num_int_register_writes           4797125                       # number of times the integer registers were written
system.cpu3.num_fp_register_reads                  78                       # number of times the floating registers were read
system.cpu3.num_fp_register_writes                 38                       # number of times the floating registers were written
system.cpu3.num_cc_register_reads             3731101                       # number of times the CC registers were read
system.cpu3.num_cc_register_writes            1875363                       # number of times the CC registers were written
system.cpu3.num_mem_refs                      1291680                       # number of memory refs
system.cpu3.num_load_insts                     805727                       # Number of load instructions
system.cpu3.num_store_insts                    485953                       # Number of store instructions
system.cpu3.num_idle_cycles              6089593544.297445                       # Number of idle cycles
system.cpu3.num_busy_cycles              11549076.702554                       # Number of busy cycles
system.cpu3.not_idle_fraction                0.001893                       # Percentage of non-idle cycles
system.cpu3.idle_fraction                    0.998107                       # Percentage of idle cycles
system.cpu3.Branches                           694549                       # Number of branches fetched
system.cpu3.op_class::No_OpClass                94042      1.58%      1.58% # Class of executed instruction
system.cpu3.op_class::IntAlu                  4511267     75.94%     77.52% # Class of executed instruction
system.cpu3.op_class::IntMult                   10510      0.18%     77.70% # Class of executed instruction
system.cpu3.op_class::IntDiv                    33389      0.56%     78.26% # Class of executed instruction
system.cpu3.op_class::FloatAdd                     32      0.00%     78.26% # Class of executed instruction
system.cpu3.op_class::FloatCmp                      0      0.00%     78.26% # Class of executed instruction
system.cpu3.op_class::FloatCvt                      0      0.00%     78.26% # Class of executed instruction
system.cpu3.op_class::FloatMult                     0      0.00%     78.26% # Class of executed instruction
system.cpu3.op_class::FloatDiv                      0      0.00%     78.26% # Class of executed instruction
system.cpu3.op_class::FloatSqrt                     0      0.00%     78.26% # Class of executed instruction
system.cpu3.op_class::SimdAdd                       0      0.00%     78.26% # Class of executed instruction
system.cpu3.op_class::SimdAddAcc                    0      0.00%     78.26% # Class of executed instruction
system.cpu3.op_class::SimdAlu                       0      0.00%     78.26% # Class of executed instruction
system.cpu3.op_class::SimdCmp                       0      0.00%     78.26% # Class of executed instruction
system.cpu3.op_class::SimdCvt                       0      0.00%     78.26% # Class of executed instruction
system.cpu3.op_class::SimdMisc                      0      0.00%     78.26% # Class of executed instruction
system.cpu3.op_class::SimdMult                      0      0.00%     78.26% # Class of executed instruction
system.cpu3.op_class::SimdMultAcc                   0      0.00%     78.26% # Class of executed instruction
system.cpu3.op_class::SimdShift                     0      0.00%     78.26% # Class of executed instruction
system.cpu3.op_class::SimdShiftAcc                  0      0.00%     78.26% # Class of executed instruction
system.cpu3.op_class::SimdSqrt                      0      0.00%     78.26% # Class of executed instruction
system.cpu3.op_class::SimdFloatAdd                  0      0.00%     78.26% # Class of executed instruction
system.cpu3.op_class::SimdFloatAlu                  0      0.00%     78.26% # Class of executed instruction
system.cpu3.op_class::SimdFloatCmp                  0      0.00%     78.26% # Class of executed instruction
system.cpu3.op_class::SimdFloatCvt                  0      0.00%     78.26% # Class of executed instruction
system.cpu3.op_class::SimdFloatDiv                  0      0.00%     78.26% # Class of executed instruction
system.cpu3.op_class::SimdFloatMisc                 0      0.00%     78.26% # Class of executed instruction
system.cpu3.op_class::SimdFloatMult                 0      0.00%     78.26% # Class of executed instruction
system.cpu3.op_class::SimdFloatMultAcc              0      0.00%     78.26% # Class of executed instruction
system.cpu3.op_class::SimdFloatSqrt                 0      0.00%     78.26% # Class of executed instruction
system.cpu3.op_class::MemRead                  805727     13.56%     91.82% # Class of executed instruction
system.cpu3.op_class::MemWrite                 485953      8.18%    100.00% # Class of executed instruction
system.cpu3.op_class::IprAccess                     0      0.00%    100.00% # Class of executed instruction
system.cpu3.op_class::InstPrefetch                  0      0.00%    100.00% # Class of executed instruction
system.cpu3.op_class::total                   5940920                       # Class of executed instruction
system.iobus.trans_dist::ReadReq                  863                       # Transaction distribution
system.iobus.trans_dist::ReadResp                 863                       # Transaction distribution
system.iobus.trans_dist::WriteReq                4680                       # Transaction distribution
system.iobus.trans_dist::WriteResp               4680                       # Transaction distribution
system.iobus.trans_dist::MessageReq               111                       # Transaction distribution
system.iobus.trans_dist::MessageResp              111                       # Transaction distribution
system.iobus.pkt_count_system.pc.south_bridge.io_apic.int_master::system.ruby.l1_cntrl0.sequencer.pio-slave-port           50                       # Packet count per connected master and slave (bytes)
system.iobus.pkt_count_system.pc.south_bridge.io_apic.int_master::system.ruby.l1_cntrl1.sequencer.pio-slave-port           50                       # Packet count per connected master and slave (bytes)
system.iobus.pkt_count_system.pc.south_bridge.io_apic.int_master::system.ruby.l1_cntrl2.sequencer.pio-slave-port           50                       # Packet count per connected master and slave (bytes)
system.iobus.pkt_count_system.pc.south_bridge.io_apic.int_master::system.ruby.l1_cntrl3.sequencer.pio-slave-port           52                       # Packet count per connected master and slave (bytes)
system.iobus.pkt_count_system.pc.south_bridge.io_apic.int_master::total          202                       # Packet count per connected master and slave (bytes)
system.iobus.pkt_count_system.ruby.l1_cntrl0.sequencer.mem-master-port::system.pc.south_bridge.ide.pio         1014                       # Packet count per connected master and slave (bytes)
system.iobus.pkt_count_system.ruby.l1_cntrl0.sequencer.mem-master-port::system.ruby.l1_cntrl0.sequencer.pio-slave-port         1608                       # Packet count per connected master and slave (bytes)
system.iobus.pkt_count_system.ruby.l1_cntrl0.sequencer.mem-master-port::system.ruby.l1_cntrl1.sequencer.pio-slave-port            2                       # Packet count per connected master and slave (bytes)
system.iobus.pkt_count_system.ruby.l1_cntrl0.sequencer.mem-master-port::system.ruby.l1_cntrl2.sequencer.pio-slave-port            4                       # Packet count per connected master and slave (bytes)
system.iobus.pkt_count_system.ruby.l1_cntrl0.sequencer.mem-master-port::system.ruby.l1_cntrl3.sequencer.pio-slave-port            6                       # Packet count per connected master and slave (bytes)
system.iobus.pkt_count_system.ruby.l1_cntrl0.sequencer.mem-master-port::total         2634                       # Packet count per connected master and slave (bytes)
system.iobus.pkt_count_system.ruby.l1_cntrl1.sequencer.mem-master-port::system.pc.south_bridge.ide.pio         1342                       # Packet count per connected master and slave (bytes)
system.iobus.pkt_count_system.ruby.l1_cntrl1.sequencer.mem-master-port::system.pc.south_bridge.io_apic.pio            6                       # Packet count per connected master and slave (bytes)
system.iobus.pkt_count_system.ruby.l1_cntrl1.sequencer.mem-master-port::system.pc.com_1.pio          174                       # Packet count per connected master and slave (bytes)
system.iobus.pkt_count_system.ruby.l1_cntrl1.sequencer.mem-master-port::system.ruby.l1_cntrl1.sequencer.pio-slave-port         1586                       # Packet count per connected master and slave (bytes)
system.iobus.pkt_count_system.ruby.l1_cntrl1.sequencer.mem-master-port::system.ruby.l1_cntrl2.sequencer.pio-slave-port            2                       # Packet count per connected master and slave (bytes)
system.iobus.pkt_count_system.ruby.l1_cntrl1.sequencer.mem-master-port::total         3110                       # Packet count per connected master and slave (bytes)
system.iobus.pkt_count_system.ruby.l1_cntrl2.sequencer.mem-master-port::system.pc.south_bridge.ide.pio         1070                       # Packet count per connected master and slave (bytes)
system.iobus.pkt_count_system.ruby.l1_cntrl2.sequencer.mem-master-port::system.pc.south_bridge.io_apic.pio            8                       # Packet count per connected master and slave (bytes)
system.iobus.pkt_count_system.ruby.l1_cntrl2.sequencer.mem-master-port::system.ruby.l1_cntrl1.sequencer.pio-slave-port            2                       # Packet count per connected master and slave (bytes)
system.iobus.pkt_count_system.ruby.l1_cntrl2.sequencer.mem-master-port::system.ruby.l1_cntrl2.sequencer.pio-slave-port         1594                       # Packet count per connected master and slave (bytes)
system.iobus.pkt_count_system.ruby.l1_cntrl2.sequencer.mem-master-port::system.ruby.l1_cntrl3.sequencer.pio-slave-port            2                       # Packet count per connected master and slave (bytes)
system.iobus.pkt_count_system.ruby.l1_cntrl2.sequencer.mem-master-port::total         2676                       # Packet count per connected master and slave (bytes)
system.iobus.pkt_count_system.ruby.l1_cntrl3.sequencer.mem-master-port::system.pc.south_bridge.ide.pio         1082                       # Packet count per connected master and slave (bytes)
system.iobus.pkt_count_system.ruby.l1_cntrl3.sequencer.mem-master-port::system.pc.south_bridge.io_apic.pio            8                       # Packet count per connected master and slave (bytes)
system.iobus.pkt_count_system.ruby.l1_cntrl3.sequencer.mem-master-port::system.pc.com_1.pio            2                       # Packet count per connected master and slave (bytes)
system.iobus.pkt_count_system.ruby.l1_cntrl3.sequencer.mem-master-port::system.ruby.l1_cntrl0.sequencer.pio-slave-port            2                       # Packet count per connected master and slave (bytes)
system.iobus.pkt_count_system.ruby.l1_cntrl3.sequencer.mem-master-port::system.ruby.l1_cntrl3.sequencer.pio-slave-port         1592                       # Packet count per connected master and slave (bytes)
system.iobus.pkt_count_system.ruby.l1_cntrl3.sequencer.mem-master-port::total         2686                       # Packet count per connected master and slave (bytes)
system.iobus.pkt_count::total                   11308                       # Packet count per connected master and slave (bytes)
system.iobus.pkt_size_system.pc.south_bridge.io_apic.int_master::system.ruby.l1_cntrl0.sequencer.pio-slave-port          100                       # Cumulative packet size per connected master and slave (bytes)
system.iobus.pkt_size_system.pc.south_bridge.io_apic.int_master::system.ruby.l1_cntrl1.sequencer.pio-slave-port          100                       # Cumulative packet size per connected master and slave (bytes)
system.iobus.pkt_size_system.pc.south_bridge.io_apic.int_master::system.ruby.l1_cntrl2.sequencer.pio-slave-port          100                       # Cumulative packet size per connected master and slave (bytes)
system.iobus.pkt_size_system.pc.south_bridge.io_apic.int_master::system.ruby.l1_cntrl3.sequencer.pio-slave-port          104                       # Cumulative packet size per connected master and slave (bytes)
system.iobus.pkt_size_system.pc.south_bridge.io_apic.int_master::total          404                       # Cumulative packet size per connected master and slave (bytes)
system.iobus.pkt_size_system.ruby.l1_cntrl0.sequencer.mem-master-port::system.pc.south_bridge.ide.pio          570                       # Cumulative packet size per connected master and slave (bytes)
system.iobus.pkt_size_system.ruby.l1_cntrl0.sequencer.mem-master-port::system.ruby.l1_cntrl0.sequencer.pio-slave-port         3216                       # Cumulative packet size per connected master and slave (bytes)
system.iobus.pkt_size_system.ruby.l1_cntrl0.sequencer.mem-master-port::system.ruby.l1_cntrl1.sequencer.pio-slave-port            4                       # Cumulative packet size per connected master and slave (bytes)
system.iobus.pkt_size_system.ruby.l1_cntrl0.sequencer.mem-master-port::system.ruby.l1_cntrl2.sequencer.pio-slave-port            8                       # Cumulative packet size per connected master and slave (bytes)
system.iobus.pkt_size_system.ruby.l1_cntrl0.sequencer.mem-master-port::system.ruby.l1_cntrl3.sequencer.pio-slave-port           12                       # Cumulative packet size per connected master and slave (bytes)
system.iobus.pkt_size_system.ruby.l1_cntrl0.sequencer.mem-master-port::total         3810                       # Cumulative packet size per connected master and slave (bytes)
system.iobus.pkt_size_system.ruby.l1_cntrl1.sequencer.mem-master-port::system.pc.south_bridge.ide.pio          764                       # Cumulative packet size per connected master and slave (bytes)
system.iobus.pkt_size_system.ruby.l1_cntrl1.sequencer.mem-master-port::system.pc.south_bridge.io_apic.pio           12                       # Cumulative packet size per connected master and slave (bytes)
system.iobus.pkt_size_system.ruby.l1_cntrl1.sequencer.mem-master-port::system.pc.com_1.pio           87                       # Cumulative packet size per connected master and slave (bytes)
system.iobus.pkt_size_system.ruby.l1_cntrl1.sequencer.mem-master-port::system.ruby.l1_cntrl1.sequencer.pio-slave-port         3172                       # Cumulative packet size per connected master and slave (bytes)
system.iobus.pkt_size_system.ruby.l1_cntrl1.sequencer.mem-master-port::system.ruby.l1_cntrl2.sequencer.pio-slave-port            4                       # Cumulative packet size per connected master and slave (bytes)
system.iobus.pkt_size_system.ruby.l1_cntrl1.sequencer.mem-master-port::total         4039                       # Cumulative packet size per connected master and slave (bytes)
system.iobus.pkt_size_system.ruby.l1_cntrl2.sequencer.mem-master-port::system.pc.south_bridge.ide.pio          604                       # Cumulative packet size per connected master and slave (bytes)
system.iobus.pkt_size_system.ruby.l1_cntrl2.sequencer.mem-master-port::system.pc.south_bridge.io_apic.pio           16                       # Cumulative packet size per connected master and slave (bytes)
system.iobus.pkt_size_system.ruby.l1_cntrl2.sequencer.mem-master-port::system.ruby.l1_cntrl1.sequencer.pio-slave-port            4                       # Cumulative packet size per connected master and slave (bytes)
system.iobus.pkt_size_system.ruby.l1_cntrl2.sequencer.mem-master-port::system.ruby.l1_cntrl2.sequencer.pio-slave-port         3188                       # Cumulative packet size per connected master and slave (bytes)
system.iobus.pkt_size_system.ruby.l1_cntrl2.sequencer.mem-master-port::system.ruby.l1_cntrl3.sequencer.pio-slave-port            4                       # Cumulative packet size per connected master and slave (bytes)
system.iobus.pkt_size_system.ruby.l1_cntrl2.sequencer.mem-master-port::total         3816                       # Cumulative packet size per connected master and slave (bytes)
system.iobus.pkt_size_system.ruby.l1_cntrl3.sequencer.mem-master-port::system.pc.south_bridge.ide.pio          610                       # Cumulative packet size per connected master and slave (bytes)
system.iobus.pkt_size_system.ruby.l1_cntrl3.sequencer.mem-master-port::system.pc.south_bridge.io_apic.pio           16                       # Cumulative packet size per connected master and slave (bytes)
system.iobus.pkt_size_system.ruby.l1_cntrl3.sequencer.mem-master-port::system.pc.com_1.pio            1                       # Cumulative packet size per connected master and slave (bytes)
system.iobus.pkt_size_system.ruby.l1_cntrl3.sequencer.mem-master-port::system.ruby.l1_cntrl0.sequencer.pio-slave-port            4                       # Cumulative packet size per connected master and slave (bytes)
system.iobus.pkt_size_system.ruby.l1_cntrl3.sequencer.mem-master-port::system.ruby.l1_cntrl3.sequencer.pio-slave-port         3184                       # Cumulative packet size per connected master and slave (bytes)
system.iobus.pkt_size_system.ruby.l1_cntrl3.sequencer.mem-master-port::total         3815                       # Cumulative packet size per connected master and slave (bytes)
system.iobus.pkt_size::total                    15884                       # Cumulative packet size per connected master and slave (bytes)
system.iobus.reqLayer2.occupancy              3906500                       # Layer occupancy (ticks)
system.iobus.reqLayer2.utilization                0.0                       # Layer utilization (%)
system.iobus.reqLayer8.occupancy                20497                       # Layer occupancy (ticks)
system.iobus.reqLayer8.utilization                0.0                       # Layer utilization (%)
system.iobus.reqLayer12.occupancy              113500                       # Layer occupancy (ticks)
system.iobus.reqLayer12.utilization               0.0                       # Layer utilization (%)
system.iobus.reqLayer17.occupancy             2258732                       # Layer occupancy (ticks)
system.iobus.reqLayer17.utilization               0.0                       # Layer utilization (%)
system.iobus.reqLayer18.occupancy             2036976                       # Layer occupancy (ticks)
system.iobus.reqLayer18.utilization               0.0                       # Layer utilization (%)
system.iobus.reqLayer19.occupancy             2043467                       # Layer occupancy (ticks)
system.iobus.reqLayer19.utilization               0.0                       # Layer utilization (%)
system.iobus.reqLayer20.occupancy             2048474                       # Layer occupancy (ticks)
system.iobus.reqLayer20.utilization               0.0                       # Layer utilization (%)
system.iobus.respLayer0.occupancy              178402                       # Layer occupancy (ticks)
system.iobus.respLayer0.utilization               0.0                       # Layer utilization (%)
system.iobus.respLayer2.occupancy             1908500                       # Layer occupancy (ticks)
system.iobus.respLayer2.utilization               0.0                       # Layer utilization (%)
system.iobus.respLayer4.occupancy             2238500                       # Layer occupancy (ticks)
system.iobus.respLayer4.utilization               0.0                       # Layer utilization (%)
system.iobus.respLayer6.occupancy             1928500                       # Layer occupancy (ticks)
system.iobus.respLayer6.utilization               0.0                       # Layer utilization (%)
system.iobus.respLayer8.occupancy             1936000                       # Layer occupancy (ticks)
system.iobus.respLayer8.utilization               0.0                       # Layer utilization (%)
system.pc.south_bridge.ide.disks.dma_read_full_pages         1522                       # Number of full page size DMA reads (not PRD).
system.pc.south_bridge.ide.disks.dma_read_bytes      6234112                       # Number of bytes transfered via DMA reads (not PRD).
system.pc.south_bridge.ide.disks.dma_read_txs         1522                       # Number of DMA read transactions (not PRD).
system.pc.south_bridge.ide.disks.dma_write_full_pages           45                       # Number of full page size DMA writes.
system.pc.south_bridge.ide.disks.dma_write_bytes       184320                       # Number of bytes transfered via DMA writes.
system.pc.south_bridge.ide.disks.dma_write_txs           45                       # Number of DMA write transactions.
system.ruby.clk_domain.clock                      500                       # Clock period in ticks
system.ruby.delayHist::bucket_size                  4                       # delay histogram for all message
system.ruby.delayHist::max_bucket                  39                       # delay histogram for all message
system.ruby.delayHist::samples              105861801                       # delay histogram for all message
system.ruby.delayHist::mean                  0.147253                       # delay histogram for all message
system.ruby.delayHist::stdev                 1.074681                       # delay histogram for all message
system.ruby.delayHist                    |   103915159     98.16%     98.16% |        7202      0.01%     98.17% |     1938958      1.83%    100.00% |         129      0.00%    100.00% |         317      0.00%    100.00% |           9      0.00%    100.00% |          15      0.00%    100.00% |          10      0.00%    100.00% |           1      0.00%    100.00% |           1      0.00%    100.00% # delay histogram for all message
system.ruby.delayHist::total                105861801                       # delay histogram for all message
system.ruby.outstanding_req_hist_seqr::bucket_size            1                      
system.ruby.outstanding_req_hist_seqr::max_bucket            9                      
system.ruby.outstanding_req_hist_seqr::samples   2882651846                      
system.ruby.outstanding_req_hist_seqr::mean     1.000000                      
system.ruby.outstanding_req_hist_seqr::gmean     1.000000                      
system.ruby.outstanding_req_hist_seqr::stdev     0.000263                      
system.ruby.outstanding_req_hist_seqr    |           0      0.00%      0.00% |  2882651647    100.00%    100.00% |         199      0.00%    100.00% |           0      0.00%    100.00% |           0      0.00%    100.00% |           0      0.00%    100.00% |           0      0.00%    100.00% |           0      0.00%    100.00% |           0      0.00%    100.00% |           0      0.00%    100.00%
system.ruby.outstanding_req_hist_seqr::total   2882651846                      
system.ruby.latency_hist_seqr::bucket_size          128                      
system.ruby.latency_hist_seqr::max_bucket         1279                      
system.ruby.latency_hist_seqr::samples     2882651846                      
system.ruby.latency_hist_seqr::mean          1.129514                      
system.ruby.latency_hist_seqr::gmean         1.022424                      
system.ruby.latency_hist_seqr::stdev         1.600427                      
system.ruby.latency_hist_seqr            |  2882625756    100.00%    100.00% |       24066      0.00%    100.00% |         617      0.00%    100.00% |         672      0.00%    100.00% |         528      0.00%    100.00% |         185      0.00%    100.00% |           4      0.00%    100.00% |           8      0.00%    100.00% |          10      0.00%    100.00% |           0      0.00%    100.00%
system.ruby.latency_hist_seqr::total       2882651846                      
system.ruby.hit_latency_hist_seqr::bucket_size            1                      
system.ruby.hit_latency_hist_seqr::max_bucket            9                      
[...]
system.ruby.Directory_Controller.M_DRDI.Memory_Ack          645      0.00%      0.00%
system.ruby.DMA_Controller.ReadRequest   |       98361    100.00%    100.00% |           0      0.00%    100.00%
system.ruby.DMA_Controller.ReadRequest::total        98361                      
system.ruby.DMA_Controller.WriteRequest  |        3008    100.00%    100.00% |           0      0.00%    100.00%
system.ruby.DMA_Controller.WriteRequest::total         3008                      
system.ruby.DMA_Controller.Data          |       98361    100.00%    100.00% |           0      0.00%    100.00%
system.ruby.DMA_Controller.Data::total          98361                      
system.ruby.DMA_Controller.Ack           |        3008    100.00%    100.00% |           0      0.00%    100.00%
system.ruby.DMA_Controller.Ack::total            3008                      
system.ruby.DMA_Controller.READY.ReadRequest |       98361    100.00%    100.00% |           0      0.00%    100.00%
system.ruby.DMA_Controller.READY.ReadRequest::total        98361                      
system.ruby.DMA_Controller.READY.WriteRequest |        3008    100.00%    100.00% |           0      0.00%    100.00%
system.ruby.DMA_Controller.READY.WriteRequest::total         3008                      
system.ruby.DMA_Controller.BUSY_RD.Data  |       98361    100.00%    100.00% |           0      0.00%    100.00%
system.ruby.DMA_Controller.BUSY_RD.Data::total        98361                      
system.ruby.DMA_Controller.BUSY_WR.Ack   |        3008    100.00%    100.00% |           0      0.00%    100.00%
system.ruby.DMA_Controller.BUSY_WR.Ack::total         3008                      
system.ruby.L1Cache_Controller.Load      |   474599158     96.25%     96.25% |     1496408      0.30%     96.56% |    15521559      3.15%     99.70% |     1464164      0.30%    100.00%
system.ruby.L1Cache_Controller.Load::total    493081289                      
system.ruby.L1Cache_Controller.Ifetch    |  2147346185     95.77%     95.77% |     7423105      0.33%     96.10% |    79774134      3.56%     99.66% |     7681730      0.34%    100.00%
system.ruby.L1Cache_Controller.Ifetch::total   2242225154                      
system.ruby.L1Cache_Controller.Store     |   162799837     94.00%     94.00% |     1035429      0.60%     94.59% |     8268863      4.77%     99.37% |     1094754      0.63%    100.00%
system.ruby.L1Cache_Controller.Store::total    173198883                      
system.ruby.L1Cache_Controller.Inv       |       13249     16.47%     16.47% |       19446     24.18%     40.65% |       26023     32.36%     73.01% |       21711     26.99%    100.00%
system.ruby.L1Cache_Controller.Inv::total        80429                      
system.ruby.L1Cache_Controller.L1_Replacement |    22007718     97.52%     97.52% |      126029      0.56%     98.08% |      308208      1.37%     99.44% |      126159      0.56%    100.00%
system.ruby.L1Cache_Controller.L1_Replacement::total     22568114                      
system.ruby.L1Cache_Controller.Fwd_GETX  |        1587     22.74%     22.74% |        1339     19.18%     41.92% |        2154     30.86%     72.78% |        1900     27.22%    100.00%
system.ruby.L1Cache_Controller.Fwd_GETX::total         6980                      
system.ruby.L1Cache_Controller.Fwd_GETS  |        3592     13.15%     13.15% |       11097     40.62%     53.77% |        6686     24.48%     78.25% |        5942     21.75%    100.00%
system.ruby.L1Cache_Controller.Fwd_GETS::total        27317                      
system.ruby.L1Cache_Controller.Data      |        2217     41.03%     41.03% |         738     13.66%     54.69% |        1646     30.46%     85.16% |         802     14.84%    100.00%
system.ruby.L1Cache_Controller.Data::total         5403                      
system.ruby.L1Cache_Controller.Data_Exclusive |    18688053     98.60%     98.60% |       38746      0.20%     98.80% |      195896      1.03%     99.84% |       31203      0.16%    100.00%
system.ruby.L1Cache_Controller.Data_Exclusive::total     18953898                      
system.ruby.L1Cache_Controller.DataS_fromL1 |        3257     11.92%     11.92% |        5907     21.62%     33.55% |       11549     42.28%     75.82% |        6604     24.18%    100.00%
system.ruby.L1Cache_Controller.DataS_fromL1::total        27317                      
system.ruby.L1Cache_Controller.Data_all_Acks |     3316541     91.89%     91.89% |       88430      2.45%     94.34% |      108470      3.01%     97.35% |       95759      2.65%    100.00%
system.ruby.L1Cache_Controller.Data_all_Acks::total      3609200                      
system.ruby.L1Cache_Controller.Ack       |       18795     45.77%     45.77% |        7275     17.72%     63.49% |        7165     17.45%     80.93% |        7829     19.07%    100.00%
system.ruby.L1Cache_Controller.Ack::total        41064                      
system.ruby.L1Cache_Controller.Ack_all   |        8846     35.11%     35.11% |        4890     19.41%     54.52% |        5835     23.16%     77.68% |        5624     22.32%    100.00%
system.ruby.L1Cache_Controller.Ack_all::total        25195                      
system.ruby.L1Cache_Controller.WB_Ack    |    20094892     98.45%     98.45% |       45993      0.23%     98.67% |      227070      1.11%     99.78% |       43988      0.22%    100.00%
system.ruby.L1Cache_Controller.WB_Ack::total     20411943                      
system.ruby.L1Cache_Controller.NP.Load   |    19569176     98.46%     98.46% |       49193      0.25%     98.70% |      209998      1.06%     99.76% |       47577      0.24%    100.00%
system.ruby.L1Cache_Controller.NP.Load::total     19875944                      
system.ruby.L1Cache_Controller.NP.Ifetch |     1033874     84.56%     84.56% |       61539      5.03%     89.59% |       63886      5.23%     94.82% |       63343      5.18%    100.00%
system.ruby.L1Cache_Controller.NP.Ifetch::total      1222642                      
system.ruby.L1Cache_Controller.NP.Store  |     1404668     95.57%     95.57% |       15442      1.05%     96.62% |       34324      2.34%     98.96% |       15285      1.04%    100.00%
system.ruby.L1Cache_Controller.NP.Store::total      1469719                      
system.ruby.L1Cache_Controller.NP.Inv    |        9664     26.01%     26.01% |        6449     17.35%     43.36% |       12837     34.54%     77.90% |        8212     22.10%    100.00%
system.ruby.L1Cache_Controller.NP.Inv::total        37162                      
system.ruby.L1Cache_Controller.I.Load    |        1014      4.90%      4.90% |        6145     29.70%     34.60% |        7137     34.50%     69.10% |        6392     30.90%    100.00%
system.ruby.L1Cache_Controller.I.Load::total        20688                      
system.ruby.L1Cache_Controller.I.Ifetch  |         459     35.17%     35.17% |         335     25.67%     60.84% |         238     18.24%     79.08% |         273     20.92%    100.00%
system.ruby.L1Cache_Controller.I.Ifetch::total         1305                      
system.ruby.L1Cache_Controller.I.Store   |         876     15.89%     15.89% |        1162     21.07%     36.96% |        1978     35.87%     72.83% |        1498     27.17%    100.00%
system.ruby.L1Cache_Controller.I.Store::total         5514                      
system.ruby.L1Cache_Controller.I.L1_Replacement |        2642     11.73%     11.73% |        6844     30.38%     42.11% |        5821     25.84%     67.95% |        7219     32.05%    100.00%
system.ruby.L1Cache_Controller.I.L1_Replacement::total        22526                      
system.ruby.L1Cache_Controller.S.Load    |    35636359     98.14%     98.14% |      203819      0.56%     98.70% |      231667      0.64%     99.34% |      240725      0.66%    100.00%
system.ruby.L1Cache_Controller.S.Load::total     36312570                      
system.ruby.L1Cache_Controller.S.Ifetch  |  2146311852     95.77%     95.77% |     7361231      0.33%     96.10% |    79710010      3.56%     99.66% |     7618114      0.34%    100.00%
system.ruby.L1Cache_Controller.S.Ifetch::total   2241001207                      
system.ruby.L1Cache_Controller.S.Store   |        6630     33.49%     33.49% |        4157     21.00%     54.49% |        4189     21.16%     75.64% |        4822     24.36%    100.00%
system.ruby.L1Cache_Controller.S.Store::total        19798                      
system.ruby.L1Cache_Controller.S.Inv     |        3164      7.80%      7.80% |       12218     30.11%     37.91% |       12562     30.96%     68.87% |       12629     31.13%    100.00%
system.ruby.L1Cache_Controller.S.Inv::total        40573                      
system.ruby.L1Cache_Controller.S.L1_Replacement |     1910184     89.53%     89.53% |       73192      3.43%     92.96% |       75317      3.53%     96.49% |       74952      3.51%    100.00%
system.ruby.L1Cache_Controller.S.L1_Replacement::total      2133645                      
system.ruby.L1Cache_Controller.E.Load    |   226172109     97.15%     97.15% |      248771      0.11%     97.26% |     6103672      2.62%     99.88% |      271417      0.12%    100.00%
system.ruby.L1Cache_Controller.E.Load::total    232795969                      
system.ruby.L1Cache_Controller.E.Store   |      470530     92.33%     92.33% |       12196      2.39%     94.73% |       15602      3.06%     97.79% |       11269      2.21%    100.00%
system.ruby.L1Cache_Controller.E.Store::total       509597                      
system.ruby.L1Cache_Controller.E.Inv     |         156     19.62%     19.62% |         242     30.44%     50.06% |         164     20.63%     70.69% |         233     29.31%    100.00%
system.ruby.L1Cache_Controller.E.Inv::total          795                      
system.ruby.L1Cache_Controller.E.L1_Replacement |    18216340     98.84%     98.84% |       18798      0.10%     98.94% |      177380      0.96%     99.91% |       17199      0.09%    100.00%
system.ruby.L1Cache_Controller.E.L1_Replacement::total     18429717                      
system.ruby.L1Cache_Controller.E.Fwd_GETX |         329     42.40%     42.40% |          64      8.25%     50.64% |          96     12.37%     63.02% |         287     36.98%    100.00%
system.ruby.L1Cache_Controller.E.Fwd_GETX::total          776                      
system.ruby.L1Cache_Controller.E.Fwd_GETS |         860      6.62%      6.62% |        7296     56.14%     62.76% |        2637     20.29%     83.06% |        2202     16.94%    100.00%
system.ruby.L1Cache_Controller.E.Fwd_GETS::total        12995                      
system.ruby.L1Cache_Controller.M.Load    |   193220500     94.68%     94.68% |      988480      0.48%     95.16% |     8969085      4.39%     99.56% |      898053      0.44%    100.00%
system.ruby.L1Cache_Controller.M.Load::total    204076118                      
system.ruby.L1Cache_Controller.M.Store   |   160917133     94.00%     94.00% |     1002472      0.59%     94.58% |     8212770      4.80%     99.38% |     1061880      0.62%    100.00%
system.ruby.L1Cache_Controller.M.Store::total    171194255                      
system.ruby.L1Cache_Controller.M.Inv     |         264     13.95%     13.95% |         532     28.10%     42.05% |         460     24.30%     66.35% |         637     33.65%    100.00%
system.ruby.L1Cache_Controller.M.Inv::total         1893                      
system.ruby.L1Cache_Controller.M.L1_Replacement |     1878552     94.77%     94.77% |       27195      1.37%     96.14% |       49690      2.51%     98.65% |       26789      1.35%    100.00%
system.ruby.L1Cache_Controller.M.L1_Replacement::total      1982226                      
system.ruby.L1Cache_Controller.M.Fwd_GETX |        1258     20.28%     20.28% |        1275     20.55%     40.83% |        2058     33.17%     74.00% |        1613     26.00%    100.00%
system.ruby.L1Cache_Controller.M.Fwd_GETX::total         6204                      
system.ruby.L1Cache_Controller.M.Fwd_GETS |        2732     19.08%     19.08% |        3801     26.54%     45.62% |        4049     28.27%     73.89% |        3740     26.11%    100.00%
system.ruby.L1Cache_Controller.M.Fwd_GETS::total        14322                      
system.ruby.L1Cache_Controller.IS.Data_Exclusive |    18688053     98.60%     98.60% |       38746      0.20%     98.80% |      195896      1.03%     99.84% |       31203      0.16%    100.00%
system.ruby.L1Cache_Controller.IS.Data_Exclusive::total     18953898                      
system.ruby.L1Cache_Controller.IS.DataS_fromL1 |        3257     11.92%     11.92% |        5907     21.62%     33.55% |       11549     42.28%     75.82% |        6604     24.18%    100.00%
system.ruby.L1Cache_Controller.IS.DataS_fromL1::total        27317                      
system.ruby.L1Cache_Controller.IS.Data_all_Acks |     1913213     89.43%     89.43% |       72559      3.39%     92.82% |       73814      3.45%     96.27% |       79778      3.73%    100.00%
system.ruby.L1Cache_Controller.IS.Data_all_Acks::total      2139364                      
system.ruby.L1Cache_Controller.IM.Data   |        2217     41.03%     41.03% |         738     13.66%     54.69% |        1646     30.46%     85.16% |         802     14.84%    100.00%
system.ruby.L1Cache_Controller.IM.Data::total         5403                      
system.ruby.L1Cache_Controller.IM.Data_all_Acks |     1403328     95.48%     95.48% |       15871      1.08%     96.55% |       34656      2.36%     98.91% |       15981      1.09%    100.00%
system.ruby.L1Cache_Controller.IM.Data_all_Acks::total      1469836                      
system.ruby.L1Cache_Controller.SM.Inv    |           1     16.67%     16.67% |           5     83.33%    100.00% |           0      0.00%    100.00% |           0      0.00%    100.00%
system.ruby.L1Cache_Controller.SM.Inv::total            6                      
system.ruby.L1Cache_Controller.SM.Ack    |       18795     45.77%     45.77% |        7275     17.72%     63.49% |        7165     17.45%     80.93% |        7829     19.07%    100.00%
system.ruby.L1Cache_Controller.SM.Ack::total        41064                      
system.ruby.L1Cache_Controller.SM.Ack_all |        8846     35.11%     35.11% |        4890     19.41%     54.52% |        5835     23.16%     77.68% |        5624     22.32%    100.00%
system.ruby.L1Cache_Controller.SM.Ack_all::total        25195                      
system.ruby.L1Cache_Controller.M_I.WB_Ack |    20094892     98.45%     98.45% |       45993      0.23%     98.67% |      227070      1.11%     99.78% |       43988      0.22%    100.00%
system.ruby.L1Cache_Controller.M_I.WB_Ack::total     20411943                      
system.ruby.L2Cache_Controller.L1_GET_INSTR      1223947      0.00%      0.00%
system.ruby.L2Cache_Controller.L1_GETS       19897350      0.00%      0.00%
system.ruby.L2Cache_Controller.L1_GETX        1475244      0.00%      0.00%
system.ruby.L2Cache_Controller.L1_UPGRADE        19798      0.00%      0.00%
system.ruby.L2Cache_Controller.L1_PUTX       20411943      0.00%      0.00%
system.ruby.L2Cache_Controller.L2_Replacement        38792      0.00%      0.00%
system.ruby.L2Cache_Controller.L2_Replacement_clean        89620      0.00%      0.00%
system.ruby.L2Cache_Controller.Mem_Data        145044      0.00%      0.00%
system.ruby.L2Cache_Controller.Mem_Ack         129057      0.00%      0.00%
system.ruby.L2Cache_Controller.WB_Data          16215      0.00%      0.00%
system.ruby.L2Cache_Controller.WB_Data_clean        12995      0.00%      0.00%
system.ruby.L2Cache_Controller.Ack              16008      0.00%      0.00%
system.ruby.L2Cache_Controller.Ack_all          16061      0.00%      0.00%
system.ruby.L2Cache_Controller.Unblock          27317      0.00%      0.00%
system.ruby.L2Cache_Controller.Exclusive_Unblock     20448928      0.00%      0.00%
system.ruby.L2Cache_Controller.MEM_Inv           1290      0.00%      0.00%
system.ruby.L2Cache_Controller.NP.L1_GET_INSTR        14992      0.00%      0.00%
system.ruby.L2Cache_Controller.NP.L1_GETS       102220      0.00%      0.00%
system.ruby.L2Cache_Controller.NP.L1_GETX        27832      0.00%      0.00%
system.ruby.L2Cache_Controller.SS.L1_GET_INSTR      1208938      0.00%      0.00%
system.ruby.L2Cache_Controller.SS.L1_GETS       915373      0.00%      0.00%
system.ruby.L2Cache_Controller.SS.L1_GETX         5403      0.00%      0.00%
system.ruby.L2Cache_Controller.SS.L1_UPGRADE        19792      0.00%      0.00%
system.ruby.L2Cache_Controller.SS.L2_Replacement          907      0.00%      0.00%
system.ruby.L2Cache_Controller.SS.L2_Replacement_clean        14359      0.00%      0.00%
system.ruby.L2Cache_Controller.M.L1_GET_INSTR           17      0.00%      0.00%
system.ruby.L2Cache_Controller.M.L1_GETS     18851700      0.00%      0.00%
system.ruby.L2Cache_Controller.M.L1_GETX      1435024      0.00%      0.00%
system.ruby.L2Cache_Controller.M.L2_Replacement        36929      0.00%      0.00%
system.ruby.L2Cache_Controller.M.L2_Replacement_clean        73698      0.00%      0.00%
system.ruby.L2Cache_Controller.M.MEM_Inv          476      0.00%      0.00%
system.ruby.L2Cache_Controller.MT.L1_GETS        27317      0.00%      0.00%
system.ruby.L2Cache_Controller.MT.L1_GETX         6980      0.00%      0.00%
system.ruby.L2Cache_Controller.MT.L1_PUTX     20411943      0.00%      0.00%
system.ruby.L2Cache_Controller.MT.L2_Replacement          956      0.00%      0.00%
system.ruby.L2Cache_Controller.MT.L2_Replacement_clean         1563      0.00%      0.00%
system.ruby.L2Cache_Controller.MT.MEM_Inv          169      0.00%      0.00%
system.ruby.L2Cache_Controller.M_I.Mem_Ack       129057      0.00%      0.00%
system.ruby.L2Cache_Controller.M_I.MEM_Inv          476      0.00%      0.00%
system.ruby.L2Cache_Controller.MT_I.WB_Data          982      0.00%      0.00%
system.ruby.L2Cache_Controller.MT_I.Ack_all          143      0.00%      0.00%
system.ruby.L2Cache_Controller.MT_I.MEM_Inv          169      0.00%      0.00%
system.ruby.L2Cache_Controller.MCT_I.WB_Data          911      0.00%      0.00%
system.ruby.L2Cache_Controller.MCT_I.Ack_all          652      0.00%      0.00%
system.ruby.L2Cache_Controller.I_I.Ack          14961      0.00%      0.00%
system.ruby.L2Cache_Controller.I_I.Ack_all        14359      0.00%      0.00%
system.ruby.L2Cache_Controller.S_I.Ack           1047      0.00%      0.00%
system.ruby.L2Cache_Controller.S_I.Ack_all          907      0.00%      0.00%
system.ruby.L2Cache_Controller.ISS.L1_GETS           22      0.00%      0.00%
system.ruby.L2Cache_Controller.ISS.Mem_Data       102198      0.00%      0.00%
system.ruby.L2Cache_Controller.IS.Mem_Data        15014      0.00%      0.00%
system.ruby.L2Cache_Controller.IM.Mem_Data        27832      0.00%      0.00%
system.ruby.L2Cache_Controller.SS_MB.L1_GETS          100      0.00%      0.00%
system.ruby.L2Cache_Controller.SS_MB.L1_GETX            1      0.00%      0.00%
system.ruby.L2Cache_Controller.SS_MB.L1_UPGRADE            6      0.00%      0.00%
system.ruby.L2Cache_Controller.SS_MB.Exclusive_Unblock        25195      0.00%      0.00%
system.ruby.L2Cache_Controller.MT_MB.L1_GETS          614      0.00%      0.00%
system.ruby.L2Cache_Controller.MT_MB.L1_GETX            3      0.00%      0.00%
system.ruby.L2Cache_Controller.MT_MB.Exclusive_Unblock     20423733      0.00%      0.00%
system.ruby.L2Cache_Controller.MT_IIB.L1_GETS            4      0.00%      0.00%
system.ruby.L2Cache_Controller.MT_IIB.L1_GETX            1      0.00%      0.00%
system.ruby.L2Cache_Controller.MT_IIB.WB_Data        14306      0.00%      0.00%
system.ruby.L2Cache_Controller.MT_IIB.WB_Data_clean        12988      0.00%      0.00%
system.ruby.L2Cache_Controller.MT_IIB.Unblock           23      0.00%      0.00%
system.ruby.L2Cache_Controller.MT_IB.WB_Data           16      0.00%      0.00%
system.ruby.L2Cache_Controller.MT_IB.WB_Data_clean            7      0.00%      0.00%
system.ruby.L2Cache_Controller.MT_SB.Unblock        27294      0.00%      0.00%

---------- End Simulation Statistics   ----------
