
---------- Begin Simulation Statistics ----------
sim_seconds                                  4.137002                       # Number of seconds simulated
sim_ticks                                4137001844500                       # Number of ticks simulated
final_tick                               55362627024501                       # Number of ticks from beginning of simulation (restored from checkpoints and never reset)
sim_freq                                 1000000000000                       # Frequency of simulated ticks
host_inst_rate                                 147376                       # Simulator instruction rate (inst/s)
host_op_rate                                   206643                       # Simulator op (including micro ops) rate (op/s)
host_tick_rate                              270835299                       # Simulator tick rate (ticks/s)
host_mem_usage                                1828728                       # Number of bytes of host memory used
host_seconds                                 15274.97                       # Real time elapsed on the host
sim_insts                                  2251157973                       # Number of instructions simulated
sim_ops                                    3156460103                       # Number of ops (including micro ops) simulated
system.voltage_domain.voltage                       1                       # Voltage in Volts
system.clk_domain.clock                          1000                       # Clock period in ticks
system.mem_ctrls.bytes_read::ruby.dir_cntrl0     93308160                       # Number of bytes read from this memory
system.mem_ctrls.bytes_read::total           93308160                       # Number of bytes read from this memory
system.mem_ctrls.bytes_written::ruby.dir_cntrl0     51237568                       # Number of bytes written to this memory
system.mem_ctrls.bytes_written::total        51237568                       # Number of bytes written to this memory
system.mem_ctrls.num_reads::ruby.dir_cntrl0      1457940                       # Number of read requests responded to by this memory
system.mem_ctrls.num_reads::total             1457940                       # Number of read requests responded to by this memory
system.mem_ctrls.num_writes::ruby.dir_cntrl0       800587                       # Number of write requests responded to by this memory
system.mem_ctrls.num_writes::total             800587                       # Number of write requests responded to by this memory
system.mem_ctrls.bw_read::ruby.dir_cntrl0     22554537                       # Total read bandwidth from this memory (bytes/s)
system.mem_ctrls.bw_read::total              22554537                       # Total read bandwidth from this memory (bytes/s)
system.mem_ctrls.bw_write::ruby.dir_cntrl0     12385193                       # Write bandwidth from this memory (bytes/s)
system.mem_ctrls.bw_write::total             12385193                       # Write bandwidth from this memory (bytes/s)
system.mem_ctrls.bw_total::ruby.dir_cntrl0     34939730                       # Total bandwidth to/from this memory (bytes/s)
system.mem_ctrls.bw_total::total             34939730                       # Total bandwidth to/from this memory (bytes/s)
system.mem_ctrls.readReqs                     1457940                       # Number of read requests accepted
system.mem_ctrls.writeReqs                     800587                       # Number of write requests accepted
system.mem_ctrls.readBursts                   1457940                       # Number of DRAM read bursts, including those serviced by the write queue
system.mem_ctrls.writeBursts                   800587                       # Number of DRAM write bursts, including those merged in the write queue
system.mem_ctrls.bytesReadDRAM               93246784                       # Total number of bytes read from DRAM
system.mem_ctrls.bytesReadWrQ                   61376                       # Total number of bytes read from write queue
system.mem_ctrls.bytesWritten                51237376                       # Total number of bytes written to DRAM
system.mem_ctrls.bytesReadSys                93308160                       # Total read bytes from the system interface side
system.mem_ctrls.bytesWrittenSys             51237568                       # Total written bytes from the system interface side
system.mem_ctrls.servicedByWrQ                    959                       # Number of DRAM read bursts serviced by the write queue
system.mem_ctrls.mergedWrBursts                     0                       # Number of DRAM write bursts merged with an existing one
system.mem_ctrls.neitherReadNorWriteReqs            0                       # Number of requests that are neither read nor write
system.mem_ctrls.perBankRdBursts::0             93156                       # Per bank write bursts
system.mem_ctrls.perBankRdBursts::1             91815                       # Per bank write bursts
system.mem_ctrls.perBankRdBursts::2             92701                       # Per bank write bursts
system.mem_ctrls.perBankRdBursts::3             88150                       # Per bank write bursts
system.mem_ctrls.perBankRdBursts::4             85955                       # Per bank write bursts
system.mem_ctrls.perBankRdBursts::5             92038                       # Per bank write bursts
system.mem_ctrls.perBankRdBursts::6             97043                       # Per bank write bursts
system.mem_ctrls.perBankRdBursts::7             96502                       # Per bank write bursts
system.mem_ctrls.perBankRdBursts::8             99030                       # Per bank write bursts
system.mem_ctrls.perBankRdBursts::9             95386                       # Per bank write bursts
system.mem_ctrls.perBankRdBursts::10            95006                       # Per bank write bursts
system.mem_ctrls.perBankRdBursts::11            86060                       # Per bank write bursts
system.mem_ctrls.perBankRdBursts::12            83899                       # Per bank write bursts
system.mem_ctrls.perBankRdBursts::13            84198                       # Per bank write bursts
system.mem_ctrls.perBankRdBursts::14            84685                       # Per bank write bursts
system.mem_ctrls.perBankRdBursts::15            91357                       # Per bank write bursts
system.mem_ctrls.perBankWrBursts::0             50623                       # Per bank write bursts
system.mem_ctrls.perBankWrBursts::1             51714                       # Per bank write bursts
system.mem_ctrls.perBankWrBursts::2             51451                       # Per bank write bursts
system.mem_ctrls.perBankWrBursts::3             47932                       # Per bank write bursts
system.mem_ctrls.perBankWrBursts::4             46766                       # Per bank write bursts
system.mem_ctrls.perBankWrBursts::5             50334                       # Per bank write bursts
system.mem_ctrls.perBankWrBursts::6             52602                       # Per bank write bursts
system.mem_ctrls.perBankWrBursts::7             51918                       # Per bank write bursts
system.mem_ctrls.perBankWrBursts::8             53550                       # Per bank write bursts
system.mem_ctrls.perBankWrBursts::9             51671                       # Per bank write bursts
system.mem_ctrls.perBankWrBursts::10            52594                       # Per bank write bursts
system.mem_ctrls.perBankWrBursts::11            48304                       # Per bank write bursts
system.mem_ctrls.perBankWrBursts::12            47335                       # Per bank write bursts
system.mem_ctrls.perBankWrBursts::13            46224                       # Per bank write bursts
system.mem_ctrls.perBankWrBursts::14            47288                       # Per bank write bursts
system.mem_ctrls.perBankWrBursts::15            50278                       # Per bank write bursts
system.mem_ctrls.numRdRetry                         0                       # Number of times read queue was full causing retry
system.mem_ctrls.numWrRetry                         0                       # Number of times write queue was full causing retry
system.mem_ctrls.totGap                  4137001779500                       # Total gap between requests
system.mem_ctrls.readPktSize::0                     0                       # Read request sizes (log2)
system.mem_ctrls.readPktSize::1                     0                       # Read request sizes (log2)
system.mem_ctrls.readPktSize::2                     0                       # Read request sizes (log2)
system.mem_ctrls.readPktSize::3                     0                       # Read request sizes (log2)
system.mem_ctrls.readPktSize::4                     0                       # Read request sizes (log2)
system.mem_ctrls.readPktSize::5                     0                       # Read request sizes (log2)
system.mem_ctrls.readPktSize::6               1457940                       # Read request sizes (log2)
system.mem_ctrls.writePktSize::0                    0                       # Write request sizes (log2)
system.mem_ctrls.writePktSize::1                    0                       # Write request sizes (log2)
system.mem_ctrls.writePktSize::2                    0                       # Write request sizes (log2)
system.mem_ctrls.writePktSize::3                    0                       # Write request sizes (log2)
system.mem_ctrls.writePktSize::4                    0                       # Write request sizes (log2)
system.mem_ctrls.writePktSize::5                    0                       # Write request sizes (log2)
system.mem_ctrls.writePktSize::6               800587                       # Write request sizes (log2)
system.mem_ctrls.rdQLenPdf::0                 1453105                       # What read queue length does an incoming req see
system.mem_ctrls.rdQLenPdf::1                    3852                       # What read queue length does an incoming req see
system.mem_ctrls.rdQLenPdf::2                      24                       # What read queue length does an incoming req see
system.mem_ctrls.rdQLenPdf::3                       0                       # What read queue length does an incoming req see
system.mem_ctrls.rdQLenPdf::4                       0                       # What read queue length does an incoming req see
system.mem_ctrls.rdQLenPdf::5                       0                       # What read queue length does an incoming req see
system.mem_ctrls.rdQLenPdf::6                       0                       # What read queue length does an incoming req see
system.mem_ctrls.rdQLenPdf::7                       0                       # What read queue length does an incoming req see
system.mem_ctrls.rdQLenPdf::8                       0                       # What read queue length does an incoming req see
system.mem_ctrls.rdQLenPdf::9                       0                       # What read queue length does an incoming req see
system.mem_ctrls.rdQLenPdf::10                      0                       # What read queue length does an incoming req see
system.mem_ctrls.rdQLenPdf::11                      0                       # What read queue length does an incoming req see
system.mem_ctrls.rdQLenPdf::12                      0                       # What read queue length does an incoming req see
system.mem_ctrls.rdQLenPdf::13                      0                       # What read queue length does an incoming req see
system.mem_ctrls.rdQLenPdf::14                      0                       # What read queue length does an incoming req see
system.mem_ctrls.rdQLenPdf::15                      0                       # What read queue length does an incoming req see
system.mem_ctrls.rdQLenPdf::16                      0                       # What read queue length does an incoming req see
system.mem_ctrls.rdQLenPdf::17                      0                       # What read queue length does an incoming req see
system.mem_ctrls.rdQLenPdf::18                      0                       # What read queue length does an incoming req see
system.mem_ctrls.rdQLenPdf::19                      0                       # What read queue length does an incoming req see
system.mem_ctrls.rdQLenPdf::20                      0                       # What read queue length does an incoming req see
system.mem_ctrls.rdQLenPdf::21                      0                       # What read queue length does an incoming req see
system.mem_ctrls.rdQLenPdf::22                      0                       # What read queue length does an incoming req see
system.mem_ctrls.rdQLenPdf::23                      0                       # What read queue length does an incoming req see
system.mem_ctrls.rdQLenPdf::24                      0                       # What read queue length does an incoming req see
system.mem_ctrls.rdQLenPdf::25                      0                       # What read queue length does an incoming req see
system.mem_ctrls.rdQLenPdf::26                      0                       # What read queue length does an incoming req see
system.mem_ctrls.rdQLenPdf::27                      0                       # What read queue length does an incoming req see
system.mem_ctrls.rdQLenPdf::28                      0                       # What read queue length does an incoming req see
system.mem_ctrls.rdQLenPdf::29                      0                       # What read queue length does an incoming req see
system.mem_ctrls.rdQLenPdf::30                      0                       # What read queue length does an incoming req see
system.mem_ctrls.rdQLenPdf::31                      0                       # What read queue length does an incoming req see
system.mem_ctrls.wrQLenPdf::0                       0                       # What write queue length does an incoming req see
system.mem_ctrls.wrQLenPdf::1                       0                       # What write queue length does an incoming req see
system.mem_ctrls.wrQLenPdf::2                       0                       # What write queue length does an incoming req see
system.mem_ctrls.wrQLenPdf::3                       0                       # What write queue length does an incoming req see
system.mem_ctrls.wrQLenPdf::4                       0                       # What write queue length does an incoming req see
system.mem_ctrls.wrQLenPdf::5                       0                       # What write queue length does an incoming req see
system.mem_ctrls.wrQLenPdf::6                       0                       # What write queue length does an incoming req see
system.mem_ctrls.wrQLenPdf::7                       0                       # What write queue length does an incoming req see
system.mem_ctrls.wrQLenPdf::8                       0                       # What write queue length does an incoming req see
system.mem_ctrls.wrQLenPdf::9                       0                       # What write queue length does an incoming req see
system.mem_ctrls.wrQLenPdf::10                      0                       # What write queue length does an incoming req see
system.mem_ctrls.wrQLenPdf::11                      0                       # What write queue length does an incoming req see
system.mem_ctrls.wrQLenPdf::12                      0                       # What write queue length does an incoming req see
system.mem_ctrls.wrQLenPdf::13                      0                       # What write queue length does an incoming req see
system.mem_ctrls.wrQLenPdf::14                      0                       # What write queue length does an incoming req see
system.mem_ctrls.wrQLenPdf::15                   1018                       # What write queue length does an incoming req see
system.mem_ctrls.wrQLenPdf::16                   1125                       # What write queue length does an incoming req see
system.mem_ctrls.wrQLenPdf::17                  49353                       # What write queue length does an incoming req see
system.mem_ctrls.wrQLenPdf::18                  49872                       # What write queue length does an incoming req see
system.mem_ctrls.wrQLenPdf::19                  49892                       # What write queue length does an incoming req see
system.mem_ctrls.wrQLenPdf::20                  49942                       # What write queue length does an incoming req see
system.mem_ctrls.wrQLenPdf::21                  49959                       # What write queue length does an incoming req see
system.mem_ctrls.wrQLenPdf::22                  49982                       # What write queue length does an incoming req see
system.mem_ctrls.wrQLenPdf::23                  49980                       # What write queue length does an incoming req see
system.mem_ctrls.wrQLenPdf::24                  49979                       # What write queue length does an incoming req see
system.mem_ctrls.wrQLenPdf::25                  49961                       # What write queue length does an incoming req see
system.mem_ctrls.wrQLenPdf::26                  49956                       # What write queue length does an incoming req see
system.mem_ctrls.wrQLenPdf::27                  49951                       # What write queue length does an incoming req see
system.mem_ctrls.wrQLenPdf::28                  49934                       # What write queue length does an incoming req see
system.mem_ctrls.wrQLenPdf::29                  49931                       # What write queue length does an incoming req see
system.mem_ctrls.wrQLenPdf::30                  49908                       # What write queue length does an incoming req see
system.mem_ctrls.wrQLenPdf::31                  49898                       # What write queue length does an incoming req see
system.mem_ctrls.wrQLenPdf::32                  49900                       # What write queue length does an incoming req see
system.mem_ctrls.wrQLenPdf::33                     13                       # What write queue length does an incoming req see
system.mem_ctrls.wrQLenPdf::34                      6                       # What write queue length does an incoming req see
system.mem_ctrls.wrQLenPdf::35                      4                       # What write queue length does an incoming req see
system.mem_ctrls.wrQLenPdf::36                      5                       # What write queue length does an incoming req see
system.mem_ctrls.wrQLenPdf::37                      4                       # What write queue length does an incoming req see
system.mem_ctrls.wrQLenPdf::38                      3                       # What write queue length does an incoming req see
system.mem_ctrls.wrQLenPdf::39                      4                       # What write queue length does an incoming req see
system.mem_ctrls.wrQLenPdf::40                      3                       # What write queue length does an incoming req see
system.mem_ctrls.wrQLenPdf::41                      2                       # What write queue length does an incoming req see
system.mem_ctrls.wrQLenPdf::42                      2                       # What write queue length does an incoming req see
system.mem_ctrls.wrQLenPdf::43                      0                       # What write queue length does an incoming req see
system.mem_ctrls.wrQLenPdf::44                      0                       # What write queue length does an incoming req see
system.mem_ctrls.wrQLenPdf::45                      0                       # What write queue length does an incoming req see
system.mem_ctrls.wrQLenPdf::46                      0                       # What write queue length does an incoming req see
system.mem_ctrls.wrQLenPdf::47                      0                       # What write queue length does an incoming req see
system.mem_ctrls.wrQLenPdf::48                      0                       # What write queue length does an incoming req see
system.mem_ctrls.wrQLenPdf::49                      0                       # What write queue length does an incoming req see
system.mem_ctrls.wrQLenPdf::50                      0                       # What write queue length does an incoming req see
system.mem_ctrls.wrQLenPdf::51                      0                       # What write queue length does an incoming req see
system.mem_ctrls.wrQLenPdf::52                      0                       # What write queue length does an incoming req see
system.mem_ctrls.wrQLenPdf::53                      0                       # What write queue length does an incoming req see
system.mem_ctrls.wrQLenPdf::54                      0                       # What write queue length does an incoming req see
system.mem_ctrls.wrQLenPdf::55                      0                       # What write queue length does an incoming req see
system.mem_ctrls.wrQLenPdf::56                      0                       # What write queue length does an incoming req see
system.mem_ctrls.wrQLenPdf::57                      0                       # What write queue length does an incoming req see
system.mem_ctrls.wrQLenPdf::58                      0                       # What write queue length does an incoming req see
system.mem_ctrls.wrQLenPdf::59                      0                       # What write queue length does an incoming req see
system.mem_ctrls.wrQLenPdf::60                      0                       # What write queue length does an incoming req see
system.mem_ctrls.wrQLenPdf::61                      0                       # What write queue length does an incoming req see
system.mem_ctrls.wrQLenPdf::62                      0                       # What write queue length does an incoming req see
system.mem_ctrls.wrQLenPdf::63                      0                       # What write queue length does an incoming req see
system.mem_ctrls.bytesPerActivate::samples      1261380                       # Bytes accessed per row activation
system.mem_ctrls.bytesPerActivate::mean    114.544515                       # Bytes accessed per row activation
system.mem_ctrls.bytesPerActivate::gmean    87.734389                       # Bytes accessed per row activation
system.mem_ctrls.bytesPerActivate::stdev   140.499165                       # Bytes accessed per row activation
system.mem_ctrls.bytesPerActivate::0-127       888933     70.47%     70.47% # Bytes accessed per row activation
system.mem_ctrls.bytesPerActivate::128-255       280089     22.20%     92.68% # Bytes accessed per row activation
system.mem_ctrls.bytesPerActivate::256-383        36735      2.91%     95.59% # Bytes accessed per row activation
system.mem_ctrls.bytesPerActivate::384-511        14963      1.19%     96.78% # Bytes accessed per row activation
system.mem_ctrls.bytesPerActivate::512-639        10230      0.81%     97.59% # Bytes accessed per row activation
system.mem_ctrls.bytesPerActivate::640-767         8934      0.71%     98.30% # Bytes accessed per row activation
system.mem_ctrls.bytesPerActivate::768-895         4926      0.39%     98.69% # Bytes accessed per row activation
system.mem_ctrls.bytesPerActivate::896-1023         4062      0.32%     99.01% # Bytes accessed per row activation
system.mem_ctrls.bytesPerActivate::1024-1151        12508      0.99%    100.00% # Bytes accessed per row activation
system.mem_ctrls.bytesPerActivate::total      1261380                       # Bytes accessed per row activation
system.mem_ctrls.rdPerTurnAround::samples        49895                       # Reads before turning the bus around for writes
system.mem_ctrls.rdPerTurnAround::mean      29.515683                       # Reads before turning the bus around for writes
system.mem_ctrls.rdPerTurnAround::gmean     27.487209                       # Reads before turning the bus around for writes
system.mem_ctrls.rdPerTurnAround::stdev     73.841072                       # Reads before turning the bus around for writes
system.mem_ctrls.rdPerTurnAround::0-511         49886     99.98%     99.98% # Reads before turning the bus around for writes
system.mem_ctrls.rdPerTurnAround::512-1023            4      0.01%     99.99% # Reads before turning the bus around for writes
system.mem_ctrls.rdPerTurnAround::1024-1535            4      0.01%    100.00% # Reads before turning the bus around for writes
system.mem_ctrls.rdPerTurnAround::15872-16383            1      0.00%    100.00% # Reads before turning the bus around for writes
system.mem_ctrls.rdPerTurnAround::total         49895                       # Reads before turning the bus around for writes
system.mem_ctrls.wrPerTurnAround::samples        49895                       # Writes before turning the bus around for reads
system.mem_ctrls.wrPerTurnAround::mean      16.045375                       # Writes before turning the bus around for reads
system.mem_ctrls.wrPerTurnAround::gmean     16.042702                       # Writes before turning the bus around for reads
system.mem_ctrls.wrPerTurnAround::stdev      0.306308                       # Writes before turning the bus around for reads
system.mem_ctrls.wrPerTurnAround::16            48752     97.71%     97.71% # Writes before turning the bus around for reads
system.mem_ctrls.wrPerTurnAround::17               77      0.15%     97.86% # Writes before turning the bus around for reads
system.mem_ctrls.wrPerTurnAround::18             1046      2.10%     99.96% # Writes before turning the bus around for reads
system.mem_ctrls.wrPerTurnAround::19                9      0.02%     99.98% # Writes before turning the bus around for reads
system.mem_ctrls.wrPerTurnAround::20                2      0.00%     99.98% # Writes before turning the bus around for reads
system.mem_ctrls.wrPerTurnAround::21                1      0.00%     99.98% # Writes before turning the bus around for reads
system.mem_ctrls.wrPerTurnAround::22                3      0.01%     99.99% # Writes before turning the bus around for reads
system.mem_ctrls.wrPerTurnAround::23                4      0.01%    100.00% # Writes before turning the bus around for reads
system.mem_ctrls.wrPerTurnAround::25                1      0.00%    100.00% # Writes before turning the bus around for reads
system.mem_ctrls.wrPerTurnAround::total         49895                       # Writes before turning the bus around for reads
system.mem_ctrls.totQLat                  24972429164                       # Total ticks spent queuing
system.mem_ctrls.totMemAccLat             52290822914                       # Total ticks spent from burst creation until serviced by the DRAM
system.mem_ctrls.totBusLat                 7284905000                       # Total ticks spent in databus transfers
system.mem_ctrls.avgQLat                     17139.85                       # Average queueing delay per DRAM burst
system.mem_ctrls.avgBusLat                    5000.00                       # Average bus latency per DRAM burst
system.mem_ctrls.avgMemAccLat                35889.85                       # Average memory access latency per DRAM burst
system.mem_ctrls.avgRdBW                        22.54                       # Average DRAM read bandwidth in MiByte/s
system.mem_ctrls.avgWrBW                        12.39                       # Average achieved write bandwidth in MiByte/s
system.mem_ctrls.avgRdBWSys                     22.55                       # Average system read bandwidth in MiByte/s
system.mem_ctrls.avgWrBWSys                     12.39                       # Average system write bandwidth in MiByte/s
system.mem_ctrls.peakBW                      12800.00                       # Theoretical peak bandwidth in MiByte/s
system.mem_ctrls.busUtil                         0.27                       # Data bus utilization in percentage
system.mem_ctrls.busUtilRead                     0.18                       # Data bus utilization in percentage for reads
system.mem_ctrls.busUtilWrite                    0.10                       # Data bus utilization in percentage for writes
system.mem_ctrls.avgRdQLen                       1.00                       # Average read queue length when enqueuing
system.mem_ctrls.avgWrQLen                      25.46                       # Average write queue length when enqueuing
system.mem_ctrls.readRowHits                   747003                       # Number of row buffer hits during reads
system.mem_ctrls.writeRowHits                  249182                       # Number of row buffer hits during writes
system.mem_ctrls.readRowHitRate                 51.27                       # Row buffer hit rate for reads
system.mem_ctrls.writeRowHitRate                31.12                       # Row buffer hit rate for writes
system.mem_ctrls.avgGap                    1831725.62                       # Average gap between requests
system.mem_ctrls.pageHitRate                    44.13                       # Row buffer hit rate, read and write combined
system.mem_ctrls_0.actEnergy               4860051840                       # Energy for activate commands per rank (pJ)
system.mem_ctrls_0.preEnergy               2651814000                       # Energy for precharge commands per rank (pJ)
system.mem_ctrls_0.readEnergy              5813316600                       # Energy for read commands per rank (pJ)
system.mem_ctrls_0.writeEnergy             2613643200                       # Energy for write commands per rank (pJ)
system.mem_ctrls_0.refreshEnergy         270468481920                       # Energy for refresh commands per rank (pJ)
system.mem_ctrls_0.actBackEnergy         473070907485                       # Energy for active background per rank (pJ)
system.mem_ctrls_0.preBackEnergy         2069611821750                       # Energy for precharge background per rank (pJ)
system.mem_ctrls_0.totalEnergy           2829090036795                       # Total energy per rank (pJ)
system.mem_ctrls_0.averagePower            683.193826                       # Core power per rank (mW)
system.mem_ctrls_0.memoryStateTime::IDLE 3438747455502                       # Time in different power states
system.mem_ctrls_0.memoryStateTime::REF  138143460000                       # Time in different power states
system.mem_ctrls_0.memoryStateTime::PRE_PDN            0                       # Time in different power states
system.mem_ctrls_0.memoryStateTime::ACT  560110841998                       # Time in different power states
system.mem_ctrls_0.memoryStateTime::ACT_PDN            0                       # Time in different power states
system.mem_ctrls_1.actEnergy               4705344000                       # Energy for activate commands per rank (pJ)
system.mem_ctrls_1.preEnergy               2567400000                       # Energy for precharge commands per rank (pJ)
system.mem_ctrls_1.readEnergy              5673696600                       # Energy for read commands per rank (pJ)
system.mem_ctrls_1.writeEnergy             2574141120                       # Energy for write commands per rank (pJ)
system.mem_ctrls_1.refreshEnergy         270468481920                       # Energy for refresh commands per rank (pJ)
system.mem_ctrls_1.actBackEnergy         470118795120                       # Energy for active background per rank (pJ)
system.mem_ctrls_1.preBackEnergy         2072201394000                       # Energy for precharge background per rank (pJ)
system.mem_ctrls_1.totalEnergy           2828309252760                       # Total energy per rank (pJ)
system.mem_ctrls_1.averagePower            683.005275                       # Core power per rank (mW)
system.mem_ctrls_1.memoryStateTime::IDLE 3443085553750                       # Time in different power states
system.mem_ctrls_1.memoryStateTime::REF  138143460000                       # Time in different power states
system.mem_ctrls_1.memoryStateTime::PRE_PDN            0                       # Time in different power states
system.mem_ctrls_1.memoryStateTime::ACT  555769136250                       # Time in different power states
system.mem_ctrls_1.memoryStateTime::ACT_PDN            0                       # Time in different power states
system.cpu_voltage_domain.voltage                   1                       # Voltage in Volts
system.cpu_clk_domain.clock                       500                       # Clock period in ticks
system.cpu0.apic_clk_domain.clock                8000                       # Clock period in ticks
system.cpu0.numCycles                      8271643300                       # number of cpu cycles simulated
system.cpu0.numWorkItemsStarted                     0                       # number of work items this cpu started
system.cpu0.numWorkItemsCompleted                   0                       # number of work items this cpu completed
system.cpu0.kern.inst.arm                           0                       # number of arm instructions executed
system.cpu0.kern.inst.quiesce                       0                       # number of quiesce instructions executed
system.cpu0.committedInsts                    4323889                       # Number of instructions committed
system.cpu0.committedOps                      9101188                       # Number of ops (including micro ops) committed
system.cpu0.num_int_alu_accesses              8921504                       # Number of integer alu accesses
system.cpu0.num_fp_alu_accesses                  1929                       # Number of float alu accesses
system.cpu0.num_func_calls                     252857                       # number of times a function call or return occured
system.cpu0.num_conditional_control_insts       644098                       # number of instructions that are conditional controls
system.cpu0.num_int_insts                     8921504                       # number of integer instructions
system.cpu0.num_fp_insts                         1929                       # number of float instructions
system.cpu0.num_int_register_reads           18085588                       # number of times the integer registers were read
system.cpu0.num_int_register_writes           7348664                       # number of times the integer registers were written
system.cpu0.num_fp_register_reads                3243                       # number of times the floating registers were read
system.cpu0.num_fp_register_writes               1535                       # number of times the floating registers were written
system.cpu0.num_cc_register_reads             5114854                       # number of times the CC registers were read
system.cpu0.num_cc_register_writes            2827131                       # number of times the CC registers were written
system.cpu0.num_mem_refs                      2128573                       # number of memory refs
system.cpu0.num_load_insts                    1321159                       # Number of load instructions
system.cpu0.num_store_insts                    807414                       # Number of store instructions
system.cpu0.num_idle_cycles              8247054031.774385                       # Number of idle cycles
system.cpu0.num_busy_cycles              24589268.225615                       # Number of busy cycles
system.cpu0.not_idle_fraction                0.002973                       # Percentage of non-idle cycles
system.cpu0.idle_fraction                    0.997027                       # Percentage of idle cycles
system.cpu0.Branches                           972175                       # Number of branches fetched
system.cpu0.op_class::No_OpClass               131079      1.44%      1.44% # Class of executed instruction
system.cpu0.op_class::IntAlu                  6779390     74.49%     75.93% # Class of executed instruction
system.cpu0.op_class::IntMult                   18002      0.20%     76.13% # Class of executed instruction
system.cpu0.op_class::IntDiv                    42780      0.47%     76.60% # Class of executed instruction
system.cpu0.op_class::FloatAdd                   1458      0.02%     76.61% # Class of executed instruction
system.cpu0.op_class::FloatCmp                      0      0.00%     76.61% # Class of executed instruction
system.cpu0.op_class::FloatCvt                      0      0.00%     76.61% # Class of executed instruction
system.cpu0.op_class::FloatMult                     0      0.00%     76.61% # Class of executed instruction
system.cpu0.op_class::FloatDiv                      0      0.00%     76.61% # Class of executed instruction
system.cpu0.op_class::FloatSqrt                     0      0.00%     76.61% # Class of executed instruction
system.cpu0.op_class::SimdAdd                       0      0.00%     76.61% # Class of executed instruction
system.cpu0.op_class::SimdAddAcc                    0      0.00%     76.61% # Class of executed instruction
system.cpu0.op_class::SimdAlu                       0      0.00%     76.61% # Class of executed instruction
system.cpu0.op_class::SimdCmp                       0      0.00%     76.61% # Class of executed instruction
system.cpu0.op_class::SimdCvt                       0      0.00%     76.61% # Class of executed instruction
system.cpu0.op_class::SimdMisc                      0      0.00%     76.61% # Class of executed instruction
system.cpu0.op_class::SimdMult                      0      0.00%     76.61% # Class of executed instruction
system.cpu0.op_class::SimdMultAcc                   0      0.00%     76.61% # Class of executed instruction
system.cpu0.op_class::SimdShift                     0      0.00%     76.61% # Class of executed instruction
system.cpu0.op_class::SimdShiftAcc                  0      0.00%     76.61% # Class of executed instruction
system.cpu0.op_class::SimdSqrt                      0      0.00%     76.61% # Class of executed instruction
system.cpu0.op_class::SimdFloatAdd                  0      0.00%     76.61% # Class of executed instruction
system.cpu0.op_class::SimdFloatAlu                  0      0.00%     76.61% # Class of executed instruction
system.cpu0.op_class::SimdFloatCmp                  0      0.00%     76.61% # Class of executed instruction
system.cpu0.op_class::SimdFloatCvt                  0      0.00%     76.61% # Class of executed instruction
system.cpu0.op_class::SimdFloatDiv                  0      0.00%     76.61% # Class of executed instruction
system.cpu0.op_class::SimdFloatMisc                 0      0.00%     76.61% # Class of executed instruction
system.cpu0.op_class::SimdFloatMult                 0      0.00%     76.61% # Class of executed instruction
system.cpu0.op_class::SimdFloatMultAcc              0      0.00%     76.61% # Class of executed instruction
system.cpu0.op_class::SimdFloatSqrt                 0      0.00%     76.61% # Class of executed instruction
system.cpu0.op_class::MemRead                 1321159     14.52%     91.13% # Class of executed instruction
system.cpu0.op_class::MemWrite                 807414      8.87%    100.00% # Class of executed instruction
system.cpu0.op_class::IprAccess                     0      0.00%    100.00% # Class of executed instruction
system.cpu0.op_class::InstPrefetch                  0      0.00%    100.00% # Class of executed instruction
system.cpu0.op_class::total                   9101282                       # Class of executed instruction
system.cpu1.apic_clk_domain.clock                8000                       # Clock period in ticks
system.cpu1.numCycles                      8274687566                       # number of cpu cycles simulated
system.cpu1.numWorkItemsStarted                     0                       # number of work items this cpu started
system.cpu1.numWorkItemsCompleted                   0                       # number of work items this cpu completed
system.cpu1.kern.inst.arm                           0                       # number of arm instructions executed
system.cpu1.kern.inst.quiesce                       0                       # number of quiesce instructions executed
system.cpu1.committedInsts                    2995579                       # Number of instructions committed
system.cpu1.committedOps                      6456167                       # Number of ops (including micro ops) committed
system.cpu1.num_int_alu_accesses              6312532                       # Number of integer alu accesses
system.cpu1.num_fp_alu_accesses                    39                       # Number of float alu accesses
system.cpu1.num_func_calls                     177140                       # number of times a function call or return occured
system.cpu1.num_conditional_control_insts       455412                       # number of instructions that are conditional controls
system.cpu1.num_int_insts                     6312532                       # number of integer instructions
system.cpu1.num_fp_insts                           39                       # number of float instructions
system.cpu1.num_int_register_reads           12840614                       # number of times the integer registers were read
system.cpu1.num_int_register_writes           5239952                       # number of times the integer registers were written
system.cpu1.num_fp_register_reads                  63                       # number of times the floating registers were read
system.cpu1.num_fp_register_writes                 31                       # number of times the floating registers were written
system.cpu1.num_cc_register_reads             3645584                       # number of times the CC registers were read
system.cpu1.num_cc_register_writes            1909829                       # number of times the CC registers were written
system.cpu1.num_mem_refs                      1537269                       # number of memory refs
system.cpu1.num_load_insts                     954460                       # Number of load instructions
system.cpu1.num_store_insts                    582809                       # Number of store instructions
system.cpu1.num_idle_cycles              8258108093.758572                       # Number of idle cycles
system.cpu1.num_busy_cycles              16579472.241428                       # Number of busy cycles
system.cpu1.not_idle_fraction                0.002004                       # Percentage of non-idle cycles
system.cpu1.idle_fraction                    0.997996                       # Percentage of idle cycles
system.cpu1.Branches                           690504                       # Number of branches fetched
system.cpu1.op_class::No_OpClass               122973      1.90%      1.90% # Class of executed instruction
system.cpu1.op_class::IntAlu                  4739016     73.40%     75.31% # Class of executed instruction
system.cpu1.op_class::IntMult                   12978      0.20%     75.51% # Class of executed instruction
system.cpu1.op_class::IntDiv                    43924      0.68%     76.19% # Class of executed instruction
system.cpu1.op_class::FloatAdd                     30      0.00%     76.19% # Class of executed instruction
system.cpu1.op_class::FloatCmp                      0      0.00%     76.19% # Class of executed instruction
system.cpu1.op_class::FloatCvt                      0      0.00%     76.19% # Class of executed instruction
system.cpu1.op_class::FloatMult                     0      0.00%     76.19% # Class of executed instruction
system.cpu1.op_class::FloatDiv                      0      0.00%     76.19% # Class of executed instruction
system.cpu1.op_class::FloatSqrt                     0      0.00%     76.19% # Class of executed instruction
system.cpu1.op_class::SimdAdd                       0      0.00%     76.19% # Class of executed instruction
system.cpu1.op_class::SimdAddAcc                    0      0.00%     76.19% # Class of executed instruction
system.cpu1.op_class::SimdAlu                       0      0.00%     76.19% # Class of executed instruction
system.cpu1.op_class::SimdCmp                       0      0.00%     76.19% # Class of executed instruction
system.cpu1.op_class::SimdCvt                       0      0.00%     76.19% # Class of executed instruction
system.cpu1.op_class::SimdMisc                      0      0.00%     76.19% # Class of executed instruction
system.cpu1.op_class::SimdMult                      0      0.00%     76.19% # Class of executed instruction
system.cpu1.op_class::SimdMultAcc                   0      0.00%     76.19% # Class of executed instruction
system.cpu1.op_class::SimdShift                     0      0.00%     76.19% # Class of executed instruction
system.cpu1.op_class::SimdShiftAcc                  0      0.00%     76.19% # Class of executed instruction
system.cpu1.op_class::SimdSqrt                      0      0.00%     76.19% # Class of executed instruction
system.cpu1.op_class::SimdFloatAdd                  0      0.00%     76.19% # Class of executed instruction
system.cpu1.op_class::SimdFloatAlu                  0      0.00%     76.19% # Class of executed instruction
system.cpu1.op_class::SimdFloatCmp                  0      0.00%     76.19% # Class of executed instruction
system.cpu1.op_class::SimdFloatCvt                  0      0.00%     76.19% # Class of executed instruction
system.cpu1.op_class::SimdFloatDiv                  0      0.00%     76.19% # Class of executed instruction
system.cpu1.op_class::SimdFloatMisc                 0      0.00%     76.19% # Class of executed instruction
system.cpu1.op_class::SimdFloatMult                 0      0.00%     76.19% # Class of executed instruction
system.cpu1.op_class::SimdFloatMultAcc              0      0.00%     76.19% # Class of executed instruction
system.cpu1.op_class::SimdFloatSqrt                 0      0.00%     76.19% # Class of executed instruction
system.cpu1.op_class::MemRead                  954460     14.78%     90.97% # Class of executed instruction
system.cpu1.op_class::MemWrite                 582809      9.03%    100.00% # Class of executed instruction
system.cpu1.op_class::IprAccess                     0      0.00%    100.00% # Class of executed instruction
system.cpu1.op_class::InstPrefetch                  0      0.00%    100.00% # Class of executed instruction
system.cpu1.op_class::total                   6456190                       # Class of executed instruction
system.cpu2.apic_clk_domain.clock                8000                       # Clock period in ticks
system.cpu2.numCycles                      8275886968                       # number of cpu cycles simulated
system.cpu2.numWorkItemsStarted                     0                       # number of work items this cpu started
system.cpu2.numWorkItemsCompleted                   0                       # number of work items this cpu completed
system.cpu2.kern.inst.arm                           0                       # number of arm instructions executed
system.cpu2.kern.inst.quiesce                       0                       # number of quiesce instructions executed
system.cpu2.committedInsts                 2239495055                       # Number of instructions committed
system.cpu2.committedOps                   3131963244                       # Number of ops (including micro ops) committed
system.cpu2.num_int_alu_accesses           1365007541                       # Number of integer alu accesses
system.cpu2.num_fp_alu_accesses            2127680265                       # Number of float alu accesses
system.cpu2.num_func_calls                    4836739                       # number of times a function call or return occured
system.cpu2.num_conditional_control_insts    125345231                       # number of instructions that are conditional controls
system.cpu2.num_int_insts                  1365007541                       # number of integer instructions
system.cpu2.num_fp_insts                   2127680265                       # number of float instructions
system.cpu2.num_int_register_reads         2745526622                       # number of times the integer registers were read
system.cpu2.num_int_register_writes         828483353                       # number of times the integer registers were written
system.cpu2.num_fp_register_reads          4601234005                       # number of times the floating registers were read
system.cpu2.num_fp_register_writes         2077617833                       # number of times the floating registers were written
system.cpu2.num_cc_register_reads           735925118                       # number of times the CC registers were read
system.cpu2.num_cc_register_writes          430153272                       # number of times the CC registers were written
system.cpu2.num_mem_refs                    408336304                       # number of memory refs
system.cpu2.num_load_insts                  353613324                       # Number of load instructions
system.cpu2.num_store_insts                  54722980                       # Number of store instructions
system.cpu2.num_idle_cycles              5613410.397987                       # Number of idle cycles
system.cpu2.num_busy_cycles              8270273557.602013                       # Number of busy cycles
system.cpu2.not_idle_fraction                0.999322                       # Percentage of non-idle cycles
system.cpu2.idle_fraction                    0.000678                       # Percentage of idle cycles
system.cpu2.Branches                        163310756                       # Number of branches fetched
system.cpu2.op_class::No_OpClass              2282645      0.07%      0.07% # Class of executed instruction
system.cpu2.op_class::IntAlu               1676678855     53.53%     53.61% # Class of executed instruction
system.cpu2.op_class::IntMult                   79431      0.00%     53.61% # Class of executed instruction
system.cpu2.op_class::IntDiv                    99020      0.00%     53.61% # Class of executed instruction
system.cpu2.op_class::FloatAdd             1044495651     33.35%     86.96% # Class of executed instruction
system.cpu2.op_class::FloatCmp                      0      0.00%     86.96% # Class of executed instruction
system.cpu2.op_class::FloatCvt                      0      0.00%     86.96% # Class of executed instruction
system.cpu2.op_class::FloatMult                     0      0.00%     86.96% # Class of executed instruction
system.cpu2.op_class::FloatDiv                      0      0.00%     86.96% # Class of executed instruction
system.cpu2.op_class::FloatSqrt                     0      0.00%     86.96% # Class of executed instruction
system.cpu2.op_class::SimdAdd                       0      0.00%     86.96% # Class of executed instruction
system.cpu2.op_class::SimdAddAcc                    0      0.00%     86.96% # Class of executed instruction
system.cpu2.op_class::SimdAlu                       0      0.00%     86.96% # Class of executed instruction
system.cpu2.op_class::SimdCmp                       0      0.00%     86.96% # Class of executed instruction
system.cpu2.op_class::SimdCvt                       0      0.00%     86.96% # Class of executed instruction
system.cpu2.op_class::SimdMisc                      0      0.00%     86.96% # Class of executed instruction
system.cpu2.op_class::SimdMult                      0      0.00%     86.96% # Class of executed instruction
system.cpu2.op_class::SimdMultAcc                   0      0.00%     86.96% # Class of executed instruction
system.cpu2.op_class::SimdShift                     0      0.00%     86.96% # Class of executed instruction
system.cpu2.op_class::SimdShiftAcc                  0      0.00%     86.96% # Class of executed instruction
system.cpu2.op_class::SimdSqrt                      0      0.00%     86.96% # Class of executed instruction
system.cpu2.op_class::SimdFloatAdd                  0      0.00%     86.96% # Class of executed instruction
system.cpu2.op_class::SimdFloatAlu                  0      0.00%     86.96% # Class of executed instruction
system.cpu2.op_class::SimdFloatCmp                  0      0.00%     86.96% # Class of executed instruction
system.cpu2.op_class::SimdFloatCvt                  0      0.00%     86.96% # Class of executed instruction
system.cpu2.op_class::SimdFloatDiv                  0      0.00%     86.96% # Class of executed instruction
system.cpu2.op_class::SimdFloatMisc                 0      0.00%     86.96% # Class of executed instruction
system.cpu2.op_class::SimdFloatMult                 0      0.00%     86.96% # Class of executed instruction
system.cpu2.op_class::SimdFloatMultAcc              0      0.00%     86.96% # Class of executed instruction
system.cpu2.op_class::SimdFloatSqrt                 0      0.00%     86.96% # Class of executed instruction
system.cpu2.op_class::MemRead               353613324     11.29%     98.25% # Class of executed instruction
system.cpu2.op_class::MemWrite               54722980      1.75%    100.00% # Class of executed instruction
system.cpu2.op_class::IprAccess                     0      0.00%    100.00% # Class of executed instruction
system.cpu2.op_class::InstPrefetch                  0      0.00%    100.00% # Class of executed instruction
system.cpu2.op_class::total                3131971906                       # Class of executed instruction
system.cpu3.apic_clk_domain.clock                8000                       # Clock period in ticks
system.cpu3.numCycles                      8270946021                       # number of cpu cycles simulated
system.cpu3.numWorkItemsStarted                     0                       # number of work items this cpu started
system.cpu3.numWorkItemsCompleted                   0                       # number of work items this cpu completed
system.cpu3.kern.inst.arm                           0                       # number of arm instructions executed
system.cpu3.kern.inst.quiesce                       0                       # number of quiesce instructions executed
system.cpu3.committedInsts                    2930459                       # Number of instructions committed
system.cpu3.committedOps                      6329300                       # Number of ops (including micro ops) committed
system.cpu3.num_int_alu_accesses              6188623                       # Number of integer alu accesses
system.cpu3.num_fp_alu_accesses                     0                       # Number of float alu accesses
system.cpu3.num_func_calls                     174204                       # number of times a function call or return occured
system.cpu3.num_conditional_control_insts       445270                       # number of instructions that are conditional controls
system.cpu3.num_int_insts                     6188623                       # number of integer instructions
system.cpu3.num_fp_insts                            0                       # number of float instructions
system.cpu3.num_int_register_reads           12582331                       # number of times the integer registers were read
system.cpu3.num_int_register_writes           5141488                       # number of times the integer registers were written
system.cpu3.num_fp_register_reads                   0                       # number of times the floating registers were read
system.cpu3.num_fp_register_writes                  0                       # number of times the floating registers were written
system.cpu3.num_cc_register_reads             3569554                       # number of times the CC registers were read
system.cpu3.num_cc_register_writes            1871300                       # number of times the CC registers were written
system.cpu3.num_mem_refs                      1504930                       # number of memory refs
system.cpu3.num_load_insts                     935650                       # Number of load instructions
system.cpu3.num_store_insts                    569280                       # Number of store instructions
system.cpu3.num_idle_cycles              8254686012.129229                       # Number of idle cycles
system.cpu3.num_busy_cycles              16260008.870771                       # Number of busy cycles
system.cpu3.not_idle_fraction                0.001966                       # Percentage of non-idle cycles
system.cpu3.idle_fraction                    0.998034                       # Percentage of idle cycles
system.cpu3.Branches                           676444                       # Number of branches fetched
system.cpu3.op_class::No_OpClass               120669      1.91%      1.91% # Class of executed instruction
system.cpu3.op_class::IntAlu                  4646967     73.42%     75.33% # Class of executed instruction
system.cpu3.op_class::IntMult                   12833      0.20%     75.53% # Class of executed instruction
system.cpu3.op_class::IntDiv                    43904      0.69%     76.22% # Class of executed instruction
system.cpu3.op_class::FloatAdd                      0      0.00%     76.22% # Class of executed instruction
system.cpu3.op_class::FloatCmp                      0      0.00%     76.22% # Class of executed instruction
system.cpu3.op_class::FloatCvt                      0      0.00%     76.22% # Class of executed instruction
system.cpu3.op_class::FloatMult                     0      0.00%     76.22% # Class of executed instruction
system.cpu3.op_class::FloatDiv                      0      0.00%     76.22% # Class of executed instruction
system.cpu3.op_class::FloatSqrt                     0      0.00%     76.22% # Class of executed instruction
system.cpu3.op_class::SimdAdd                       0      0.00%     76.22% # Class of executed instruction
system.cpu3.op_class::SimdAddAcc                    0      0.00%     76.22% # Class of executed instruction
system.cpu3.op_class::SimdAlu                       0      0.00%     76.22% # Class of executed instruction
system.cpu3.op_class::SimdCmp                       0      0.00%     76.22% # Class of executed instruction
system.cpu3.op_class::SimdCvt                       0      0.00%     76.22% # Class of executed instruction
system.cpu3.op_class::SimdMisc                      0      0.00%     76.22% # Class of executed instruction
system.cpu3.op_class::SimdMult                      0      0.00%     76.22% # Class of executed instruction
system.cpu3.op_class::SimdMultAcc                   0      0.00%     76.22% # Class of executed instruction
system.cpu3.op_class::SimdShift                     0      0.00%     76.22% # Class of executed instruction
system.cpu3.op_class::SimdShiftAcc                  0      0.00%     76.22% # Class of executed instruction
system.cpu3.op_class::SimdSqrt                      0      0.00%     76.22% # Class of executed instruction
system.cpu3.op_class::SimdFloatAdd                  0      0.00%     76.22% # Class of executed instruction
system.cpu3.op_class::SimdFloatAlu                  0      0.00%     76.22% # Class of executed instruction
system.cpu3.op_class::SimdFloatCmp                  0      0.00%     76.22% # Class of executed instruction
system.cpu3.op_class::SimdFloatCvt                  0      0.00%     76.22% # Class of executed instruction
system.cpu3.op_class::SimdFloatDiv                  0      0.00%     76.22% # Class of executed instruction
system.cpu3.op_class::SimdFloatMisc                 0      0.00%     76.22% # Class of executed instruction
system.cpu3.op_class::SimdFloatMult                 0      0.00%     76.22% # Class of executed instruction
system.cpu3.op_class::SimdFloatMultAcc              0      0.00%     76.22% # Class of executed instruction
system.cpu3.op_class::SimdFloatSqrt                 0      0.00%     76.22% # Class of executed instruction
system.cpu3.op_class::MemRead                  935650     14.78%     91.01% # Class of executed instruction
system.cpu3.op_class::MemWrite                 569280      8.99%    100.00% # Class of executed instruction
system.cpu3.op_class::IprAccess                     0      0.00%    100.00% # Class of executed instruction
system.cpu3.op_class::InstPrefetch                  0      0.00%    100.00% # Class of executed instruction
system.cpu3.op_class::total                   6329303                       # Class of executed instruction
system.iobus.trans_dist::ReadReq                  202                       # Transaction distribution
system.iobus.trans_dist::ReadResp                 202                       # Transaction distribution
system.iobus.trans_dist::WriteReq                4281                       # Transaction distribution
system.iobus.trans_dist::WriteResp               4281                       # Transaction distribution
system.iobus.trans_dist::MessageReq                20                       # Transaction distribution
system.iobus.trans_dist::MessageResp               20                       # Transaction distribution
system.iobus.pkt_count_system.pc.south_bridge.io_apic.int_master::system.ruby.l0_cntrl0.sequencer.pio-slave-port            6                       # Packet count per connected master and slave (bytes)
system.iobus.pkt_count_system.pc.south_bridge.io_apic.int_master::system.ruby.l0_cntrl1.sequencer.pio-slave-port            6                       # Packet count per connected master and slave (bytes)
system.iobus.pkt_count_system.pc.south_bridge.io_apic.int_master::system.ruby.l0_cntrl2.sequencer.pio-slave-port            4                       # Packet count per connected master and slave (bytes)
system.iobus.pkt_count_system.pc.south_bridge.io_apic.int_master::system.ruby.l0_cntrl3.sequencer.pio-slave-port            6                       # Packet count per connected master and slave (bytes)
system.iobus.pkt_count_system.pc.south_bridge.io_apic.int_master::total           22                       # Packet count per connected master and slave (bytes)
system.iobus.pkt_count_system.ruby.l0_cntrl0.sequencer.mem-master-port::system.pc.south_bridge.ide.pio           46                       # Packet count per connected master and slave (bytes)
system.iobus.pkt_count_system.ruby.l0_cntrl0.sequencer.mem-master-port::system.pc.south_bridge.io_apic.pio           14                       # Packet count per connected master and slave (bytes)
system.iobus.pkt_count_system.ruby.l0_cntrl0.sequencer.mem-master-port::system.pc.com_1.pio           22                       # Packet count per connected master and slave (bytes)
system.iobus.pkt_count_system.ruby.l0_cntrl0.sequencer.mem-master-port::system.ruby.l0_cntrl0.sequencer.pio-slave-port         2096                       # Packet count per connected master and slave (bytes)
system.iobus.pkt_count_system.ruby.l0_cntrl0.sequencer.mem-master-port::system.ruby.l0_cntrl1.sequencer.pio-slave-port            2                       # Packet count per connected master and slave (bytes)
system.iobus.pkt_count_system.ruby.l0_cntrl0.sequencer.mem-master-port::system.ruby.l0_cntrl2.sequencer.pio-slave-port            2                       # Packet count per connected master and slave (bytes)
system.iobus.pkt_count_system.ruby.l0_cntrl0.sequencer.mem-master-port::system.ruby.l0_cntrl3.sequencer.pio-slave-port            2                       # Packet count per connected master and slave (bytes)
system.iobus.pkt_count_system.ruby.l0_cntrl0.sequencer.mem-master-port::total         2184                       # Packet count per connected master and slave (bytes)
system.iobus.pkt_count_system.ruby.l0_cntrl1.sequencer.mem-master-port::system.pc.south_bridge.io_apic.pio           22                       # Packet count per connected master and slave (bytes)
system.iobus.pkt_count_system.ruby.l0_cntrl1.sequencer.mem-master-port::system.pc.com_1.pio          164                       # Packet count per connected master and slave (bytes)
system.iobus.pkt_count_system.ruby.l0_cntrl1.sequencer.mem-master-port::system.ruby.l0_cntrl1.sequencer.pio-slave-port         2088                       # Packet count per connected master and slave (bytes)
system.iobus.pkt_count_system.ruby.l0_cntrl1.sequencer.mem-master-port::system.ruby.l0_cntrl2.sequencer.pio-slave-port            2                       # Packet count per connected master and slave (bytes)
system.iobus.pkt_count_system.ruby.l0_cntrl1.sequencer.mem-master-port::total         2276                       # Packet count per connected master and slave (bytes)
system.iobus.pkt_count_system.ruby.l0_cntrl2.sequencer.mem-master-port::system.pc.south_bridge.ide.pio           34                       # Packet count per connected master and slave (bytes)
system.iobus.pkt_count_system.ruby.l0_cntrl2.sequencer.mem-master-port::system.pc.south_bridge.io_apic.pio           16                       # Packet count per connected master and slave (bytes)
system.iobus.pkt_count_system.ruby.l0_cntrl2.sequencer.mem-master-port::system.ruby.l0_cntrl1.sequencer.pio-slave-port            6                       # Packet count per connected master and slave (bytes)
system.iobus.pkt_count_system.ruby.l0_cntrl2.sequencer.mem-master-port::system.ruby.l0_cntrl2.sequencer.pio-slave-port         2100                       # Packet count per connected master and slave (bytes)
system.iobus.pkt_count_system.ruby.l0_cntrl2.sequencer.mem-master-port::system.ruby.l0_cntrl3.sequencer.pio-slave-port            2                       # Packet count per connected master and slave (bytes)
system.iobus.pkt_count_system.ruby.l0_cntrl2.sequencer.mem-master-port::total         2158                       # Packet count per connected master and slave (bytes)
system.iobus.pkt_count_system.ruby.l0_cntrl3.sequencer.mem-master-port::system.pc.south_bridge.ide.pio           12                       # Packet count per connected master and slave (bytes)
system.iobus.pkt_count_system.ruby.l0_cntrl3.sequencer.mem-master-port::system.pc.south_bridge.io_apic.pio           14                       # Packet count per connected master and slave (bytes)
system.iobus.pkt_count_system.ruby.l0_cntrl3.sequencer.mem-master-port::system.pc.com_1.pio          254                       # Packet count per connected master and slave (bytes)
system.iobus.pkt_count_system.ruby.l0_cntrl3.sequencer.mem-master-port::system.ruby.l0_cntrl0.sequencer.pio-slave-port            2                       # Packet count per connected master and slave (bytes)
system.iobus.pkt_count_system.ruby.l0_cntrl3.sequencer.mem-master-port::system.ruby.l0_cntrl3.sequencer.pio-slave-port         2084                       # Packet count per connected master and slave (bytes)
system.iobus.pkt_count_system.ruby.l0_cntrl3.sequencer.mem-master-port::total         2366                       # Packet count per connected master and slave (bytes)
system.iobus.pkt_count::total                    9006                       # Packet count per connected master and slave (bytes)
system.iobus.pkt_size_system.pc.south_bridge.io_apic.int_master::system.ruby.l0_cntrl0.sequencer.pio-slave-port           12                       # Cumulative packet size per connected master and slave (bytes)
system.iobus.pkt_size_system.pc.south_bridge.io_apic.int_master::system.ruby.l0_cntrl1.sequencer.pio-slave-port           12                       # Cumulative packet size per connected master and slave (bytes)
system.iobus.pkt_size_system.pc.south_bridge.io_apic.int_master::system.ruby.l0_cntrl2.sequencer.pio-slave-port            8                       # Cumulative packet size per connected master and slave (bytes)
system.iobus.pkt_size_system.pc.south_bridge.io_apic.int_master::system.ruby.l0_cntrl3.sequencer.pio-slave-port           12                       # Cumulative packet size per connected master and slave (bytes)
system.iobus.pkt_size_system.pc.south_bridge.io_apic.int_master::total           44                       # Cumulative packet size per connected master and slave (bytes)
system.iobus.pkt_size_system.ruby.l0_cntrl0.sequencer.mem-master-port::system.pc.south_bridge.ide.pio           26                       # Cumulative packet size per connected master and slave (bytes)
system.iobus.pkt_size_system.ruby.l0_cntrl0.sequencer.mem-master-port::system.pc.south_bridge.io_apic.pio           28                       # Cumulative packet size per connected master and slave (bytes)
system.iobus.pkt_size_system.ruby.l0_cntrl0.sequencer.mem-master-port::system.pc.com_1.pio           11                       # Cumulative packet size per connected master and slave (bytes)
system.iobus.pkt_size_system.ruby.l0_cntrl0.sequencer.mem-master-port::system.ruby.l0_cntrl0.sequencer.pio-slave-port         4192                       # Cumulative packet size per connected master and slave (bytes)
system.iobus.pkt_size_system.ruby.l0_cntrl0.sequencer.mem-master-port::system.ruby.l0_cntrl1.sequencer.pio-slave-port            4                       # Cumulative packet size per connected master and slave (bytes)
system.iobus.pkt_size_system.ruby.l0_cntrl0.sequencer.mem-master-port::system.ruby.l0_cntrl2.sequencer.pio-slave-port            4                       # Cumulative packet size per connected master and slave (bytes)
system.iobus.pkt_size_system.ruby.l0_cntrl0.sequencer.mem-master-port::system.ruby.l0_cntrl3.sequencer.pio-slave-port            4                       # Cumulative packet size per connected master and slave (bytes)
system.iobus.pkt_size_system.ruby.l0_cntrl0.sequencer.mem-master-port::total         4269                       # Cumulative packet size per connected master and slave (bytes)
system.iobus.pkt_size_system.ruby.l0_cntrl1.sequencer.mem-master-port::system.pc.south_bridge.io_apic.pio           44                       # Cumulative packet size per connected master and slave (bytes)
system.iobus.pkt_size_system.ruby.l0_cntrl1.sequencer.mem-master-port::system.pc.com_1.pio           82                       # Cumulative packet size per connected master and slave (bytes)
system.iobus.pkt_size_system.ruby.l0_cntrl1.sequencer.mem-master-port::system.ruby.l0_cntrl1.sequencer.pio-slave-port         4176                       # Cumulative packet size per connected master and slave (bytes)
system.iobus.pkt_size_system.ruby.l0_cntrl1.sequencer.mem-master-port::system.ruby.l0_cntrl2.sequencer.pio-slave-port            4                       # Cumulative packet size per connected master and slave (bytes)
system.iobus.pkt_size_system.ruby.l0_cntrl1.sequencer.mem-master-port::total         4306                       # Cumulative packet size per connected master and slave (bytes)
system.iobus.pkt_size_system.ruby.l0_cntrl2.sequencer.mem-master-port::system.pc.south_bridge.ide.pio           20                       # Cumulative packet size per connected master and slave (bytes)
system.iobus.pkt_size_system.ruby.l0_cntrl2.sequencer.mem-master-port::system.pc.south_bridge.io_apic.pio           32                       # Cumulative packet size per connected master and slave (bytes)
system.iobus.pkt_size_system.ruby.l0_cntrl2.sequencer.mem-master-port::system.ruby.l0_cntrl1.sequencer.pio-slave-port           12                       # Cumulative packet size per connected master and slave (bytes)
system.iobus.pkt_size_system.ruby.l0_cntrl2.sequencer.mem-master-port::system.ruby.l0_cntrl2.sequencer.pio-slave-port         4200                       # Cumulative packet size per connected master and slave (bytes)
system.iobus.pkt_size_system.ruby.l0_cntrl2.sequencer.mem-master-port::system.ruby.l0_cntrl3.sequencer.pio-slave-port            4                       # Cumulative packet size per connected master and slave (bytes)
system.iobus.pkt_size_system.ruby.l0_cntrl2.sequencer.mem-master-port::total         4268                       # Cumulative packet size per connected master and slave (bytes)
system.iobus.pkt_size_system.ruby.l0_cntrl3.sequencer.mem-master-port::system.pc.south_bridge.ide.pio            6                       # Cumulative packet size per connected master and slave (bytes)
system.iobus.pkt_size_system.ruby.l0_cntrl3.sequencer.mem-master-port::system.pc.south_bridge.io_apic.pio           28                       # Cumulative packet size per connected master and slave (bytes)
system.iobus.pkt_size_system.ruby.l0_cntrl3.sequencer.mem-master-port::system.pc.com_1.pio          127                       # Cumulative packet size per connected master and slave (bytes)
system.iobus.pkt_size_system.ruby.l0_cntrl3.sequencer.mem-master-port::system.ruby.l0_cntrl0.sequencer.pio-slave-port            4                       # Cumulative packet size per connected master and slave (bytes)
system.iobus.pkt_size_system.ruby.l0_cntrl3.sequencer.mem-master-port::system.ruby.l0_cntrl3.sequencer.pio-slave-port         4168                       # Cumulative packet size per connected master and slave (bytes)
system.iobus.pkt_size_system.ruby.l0_cntrl3.sequencer.mem-master-port::total         4333                       # Cumulative packet size per connected master and slave (bytes)
system.iobus.pkt_size::total                    17220                       # Cumulative packet size per connected master and slave (bytes)
system.iobus.reqLayer2.occupancy                81500                       # Layer occupancy (ticks)
system.iobus.reqLayer2.utilization                0.0                       # Layer utilization (%)
system.iobus.reqLayer8.occupancy                60494                       # Layer occupancy (ticks)
system.iobus.reqLayer8.utilization                0.0                       # Layer utilization (%)
system.iobus.reqLayer12.occupancy              285500                       # Layer occupancy (ticks)
system.iobus.reqLayer12.utilization               0.0                       # Layer utilization (%)
system.iobus.reqLayer17.occupancy             2548496                       # Layer occupancy (ticks)
system.iobus.reqLayer17.utilization               0.0                       # Layer utilization (%)
system.iobus.reqLayer18.occupancy             2555500                       # Layer occupancy (ticks)
system.iobus.reqLayer18.utilization               0.0                       # Layer utilization (%)
system.iobus.reqLayer19.occupancy             2877465                       # Layer occupancy (ticks)
system.iobus.reqLayer19.utilization               0.0                       # Layer utilization (%)
system.iobus.reqLayer20.occupancy             2542999                       # Layer occupancy (ticks)
system.iobus.reqLayer20.utilization               0.0                       # Layer utilization (%)
system.iobus.respLayer0.occupancy               14998                       # Layer occupancy (ticks)
system.iobus.respLayer0.utilization               0.0                       # Layer utilization (%)
system.iobus.respLayer2.occupancy             1638000                       # Layer occupancy (ticks)
system.iobus.respLayer2.utilization               0.0                       # Layer utilization (%)
system.iobus.respLayer4.occupancy             1725000                       # Layer occupancy (ticks)
system.iobus.respLayer4.utilization               0.0                       # Layer utilization (%)
system.iobus.respLayer6.occupancy             1616500                       # Layer occupancy (ticks)
system.iobus.respLayer6.utilization               0.0                       # Layer utilization (%)
system.iobus.respLayer8.occupancy             1807500                       # Layer occupancy (ticks)
system.iobus.respLayer8.utilization               0.0                       # Layer utilization (%)
system.pc.south_bridge.ide.disks.dma_read_full_pages            1                       # Number of full page size DMA reads (not PRD).
system.pc.south_bridge.ide.disks.dma_read_bytes         4096                       # Number of bytes transfered via DMA reads (not PRD).
system.pc.south_bridge.ide.disks.dma_read_txs            1                       # Number of DMA read transactions (not PRD).
system.pc.south_bridge.ide.disks.dma_write_full_pages           24                       # Number of full page size DMA writes.
system.pc.south_bridge.ide.disks.dma_write_bytes        98304                       # Number of bytes transfered via DMA writes.
system.pc.south_bridge.ide.disks.dma_write_txs           24                       # Number of DMA write transactions.
system.ruby.clk_domain.clock                      500                       # Clock period in ticks
system.ruby.delayHist::bucket_size                  4                       # delay histogram for all message
system.ruby.delayHist::max_bucket                  39                       # delay histogram for all message
system.ruby.delayHist::samples              142156362                       # delay histogram for all message
system.ruby.delayHist::mean                  0.117446                       # delay histogram for all message
system.ruby.delayHist::stdev                 0.961999                       # delay histogram for all message
system.ruby.delayHist                    |   140071125     98.53%     98.53% |        5998      0.00%     98.54% |     2078481      1.46%    100.00% |         210      0.00%    100.00% |         525      0.00%    100.00% |           9      0.00%    100.00% |          14      0.00%    100.00% |           0      0.00%    100.00% |           0      0.00%    100.00% |           0      0.00%    100.00% # delay histogram for all message
system.ruby.delayHist::total                142156362                       # delay histogram for all message
system.ruby.outstanding_req_hist_seqr::bucket_size            1                      
system.ruby.outstanding_req_hist_seqr::max_bucket            9                      
system.ruby.outstanding_req_hist_seqr::samples   3807047459                      
system.ruby.outstanding_req_hist_seqr::mean     1.000000                      
system.ruby.outstanding_req_hist_seqr::gmean     1.000000                      
system.ruby.outstanding_req_hist_seqr::stdev     0.000222                      
system.ruby.outstanding_req_hist_seqr    |           0      0.00%      0.00% |  3807047271    100.00%    100.00% |         188      0.00%    100.00% |           0      0.00%    100.00% |           0      0.00%    100.00% |           0      0.00%    100.00% |           0      0.00%    100.00% |           0      0.00%    100.00% |           0      0.00%    100.00% |           0      0.00%    100.00%
system.ruby.outstanding_req_hist_seqr::total   3807047459                      
system.ruby.latency_hist_seqr::bucket_size          256                      
system.ruby.latency_hist_seqr::max_bucket         2559                      
system.ruby.latency_hist_seqr::samples     3807047459                      
system.ruby.latency_hist_seqr::mean          1.186699                      
system.ruby.latency_hist_seqr::gmean         1.038743                      
system.ruby.latency_hist_seqr::stdev         3.602917                      
system.ruby.latency_hist_seqr            |  3806969983    100.00%    100.00% |       54099      0.00%    100.00% |       22491      0.00%    100.00% |         516      0.00%    100.00% |         345      0.00%    100.00% |          24      0.00%    100.00% |           1      0.00%    100.00% |           0      0.00%    100.00% |           0      0.00%    100.00% |           0      0.00%    100.00%
system.ruby.latency_hist_seqr::total       3807047459                      
system.ruby.hit_latency_hist_seqr::bucket_size            1                      
system.ruby.hit_latency_hist_seqr::max_bucket            9                      
system.ruby.hit_latency_hist_seqr::samples   3730276997                      
system.ruby.hit_latency_hist_seqr::mean             1                      
system.ruby.hit_latency_hist_seqr::gmean            1                      
[...]
system.ruby.L1Cache_Controller.DataS_fromL1::total        23384                      
system.ruby.L1Cache_Controller.Data_all_Acks |      167493     12.98%     12.98% |      114359      8.87%     21.85% |      902860     69.99%     91.84% |      105213      8.16%    100.00%
system.ruby.L1Cache_Controller.Data_all_Acks::total      1289925                      
system.ruby.L1Cache_Controller.L0_Ack    |      141744      8.19%      8.19% |      103001      5.95%     14.15% |     1389034     80.28%     94.43% |       96436      5.57%    100.00%
system.ruby.L1Cache_Controller.L0_Ack::total      1730215                      
system.ruby.L1Cache_Controller.Ack       |       19570     59.55%     59.55% |        2863      8.71%     68.26% |        5885     17.91%     86.17% |        4546     13.83%    100.00%
system.ruby.L1Cache_Controller.Ack::total        32864                      
system.ruby.L1Cache_Controller.Ack_all   |        8835     49.99%     49.99% |        2106     11.92%     61.91% |        3148     17.81%     79.72% |        3583     20.28%    100.00%
system.ruby.L1Cache_Controller.Ack_all::total        17672                      
system.ruby.L1Cache_Controller.WB_Ack    |      200847      1.66%      1.66% |       84477      0.70%      2.36% |    11748402     97.09%     99.45% |       66760      0.55%    100.00%
system.ruby.L1Cache_Controller.WB_Ack::total     12100486                      
system.ruby.L1Cache_Controller.I.Load    |      295884      2.49%      2.49% |      164125      1.38%      3.87% |    11274154     94.88%     98.75% |      148612      1.25%    100.00%
system.ruby.L1Cache_Controller.I.Load::total     11882775                      
system.ruby.L1Cache_Controller.I.Store   |       43681      5.59%      5.59% |       26631      3.41%      9.00% |      691688     88.51%     97.51% |       19481      2.49%    100.00%
system.ruby.L1Cache_Controller.I.Store::total       781481                      
system.ruby.L1Cache_Controller.I.Inv     |        4454     20.06%     20.06% |        5420     24.41%     44.47% |        8079     36.39%     80.85% |        4251     19.15%    100.00%
system.ruby.L1Cache_Controller.I.Inv::total        22204                      
system.ruby.L1Cache_Controller.S.Load    |      226413     28.93%     28.93% |      204040     26.07%     55.01% |      148047     18.92%     73.93% |      204017     26.07%    100.00%
system.ruby.L1Cache_Controller.S.Load::total       782517                      
system.ruby.L1Cache_Controller.S.Store   |        5096     49.63%     49.63% |        1741     16.95%     66.58% |        1868     18.19%     84.77% |        1564     15.23%    100.00%
system.ruby.L1Cache_Controller.S.Store::total        10269                      
system.ruby.L1Cache_Controller.S.L0_Invalidate_Own |      125324     24.51%     24.51% |       87999     17.21%     41.72% |      213982     41.84%     83.56% |       84075     16.44%    100.00%
system.ruby.L1Cache_Controller.S.L0_Invalidate_Own::total       511380                      
system.ruby.L1Cache_Controller.S.L0_Invalidate_Else |        5205     21.29%     21.29% |        9525     38.97%     60.26% |         981      4.01%     64.27% |        8733     35.73%    100.00%
system.ruby.L1Cache_Controller.S.L0_Invalidate_Else::total        24444                      
system.ruby.L1Cache_Controller.SS.Load   |        3323     39.58%     39.58% |        2964     35.30%     74.88% |         412      4.91%     79.79% |        1697     20.21%    100.00%
system.ruby.L1Cache_Controller.SS.Load::total         8396                      
system.ruby.L1Cache_Controller.SS.Store  |        1271     88.45%     88.45% |          88      6.12%     94.57% |          45      3.13%     97.70% |          33      2.30%    100.00%
system.ruby.L1Cache_Controller.SS.Store::total         1437                      
system.ruby.L1Cache_Controller.SS.Inv    |        6886     20.57%     20.57% |       13277     39.67%     60.25% |        1612      4.82%     65.06% |       11693     34.94%    100.00%
system.ruby.L1Cache_Controller.SS.Inv::total        33468                      
system.ruby.L1Cache_Controller.SS.L1_Replacement |      126618     24.53%     24.53% |       88901     17.23%     41.76% |      215086     41.68%     83.44% |       85481     16.56%    100.00%
system.ruby.L1Cache_Controller.SS.L1_Replacement::total       516086                      
system.ruby.L1Cache_Controller.E.WriteBack |      156292      1.49%      1.49% |       64374      0.61%      2.10% |    10241740     97.39%     99.49% |       53950      0.51%    100.00%
system.ruby.L1Cache_Controller.E.WriteBack::total     10516356                      
system.ruby.L1Cache_Controller.E.L0_Invalidate_Own |        5969      0.72%      0.72% |        1440      0.17%      0.90% |      815943     99.00%     99.90% |         855      0.10%    100.00%
system.ruby.L1Cache_Controller.E.L0_Invalidate_Own::total       824207                      
system.ruby.L1Cache_Controller.E.L0_Invalidate_Else |        1173     26.42%     26.42% |        1874     42.22%     68.64% |         214      4.82%     73.46% |        1178     26.54%    100.00%
system.ruby.L1Cache_Controller.E.L0_Invalidate_Else::total         4439                      
system.ruby.L1Cache_Controller.EE.Inv    |         234     25.46%     25.46% |         225     24.48%     49.95% |           2      0.22%     50.16% |         458     49.84%    100.00%
system.ruby.L1Cache_Controller.EE.Inv::total          919                      
system.ruby.L1Cache_Controller.EE.L1_Replacement |        5243      0.66%      0.66% |        1122      0.14%      0.80% |      790257     99.11%     99.91% |         694      0.09%    100.00%
system.ruby.L1Cache_Controller.EE.L1_Replacement::total       797316                      
system.ruby.L1Cache_Controller.EE.Fwd_GETX |          15     50.00%     50.00% |           6     20.00%     70.00% |           7     23.33%     93.33% |           2      6.67%    100.00%
system.ruby.L1Cache_Controller.EE.Fwd_GETX::total           30                      
system.ruby.L1Cache_Controller.EE.Fwd_GETS |         743     27.04%     27.04% |        1403     51.06%     78.09% |         155      5.64%     83.73% |         447     16.27%    100.00%
system.ruby.L1Cache_Controller.EE.Fwd_GETS::total         2748                      
system.ruby.L1Cache_Controller.M.WriteBack |      298253      0.46%      0.46% |      199502      0.31%      0.77% |    63709507     99.04%     99.81% |      120890      0.19%    100.00%
system.ruby.L1Cache_Controller.M.WriteBack::total     64328152                      
system.ruby.L1Cache_Controller.M.L0_Invalidate_Own |       13132      2.97%      2.97% |        4411      1.00%      3.97% |      419582     95.01%     98.98% |        4515      1.02%    100.00%
system.ruby.L1Cache_Controller.M.L0_Invalidate_Own::total       441640                      
system.ruby.L1Cache_Controller.M.L0_Invalidate_Else |        4349     35.78%     35.78% |        3548     29.19%     64.97% |        1109      9.12%     74.09% |        3149     25.91%    100.00%
system.ruby.L1Cache_Controller.M.L0_Invalidate_Else::total        12155                      
system.ruby.L1Cache_Controller.MM.Load   |      202674      0.33%      0.33% |      134029      0.22%      0.54% |    61677817     99.34%     99.88% |       72496      0.12%    100.00%
system.ruby.L1Cache_Controller.MM.Load::total     62087016                      
system.ruby.L1Cache_Controller.MM.Store  |       62995      3.31%      3.31% |       44969      2.36%      5.68% |     1758795     92.48%     98.16% |       34980      1.84%    100.00%
system.ruby.L1Cache_Controller.MM.Store::total      1901739                      
system.ruby.L1Cache_Controller.MM.Inv    |        4289     39.57%     39.57% |        3263     30.11%     69.68% |          39      0.36%     70.04% |        3247     29.96%    100.00%
system.ruby.L1Cache_Controller.MM.Inv::total        10838                      
system.ruby.L1Cache_Controller.MM.L1_Replacement |      195604      1.73%      1.73% |       83355      0.74%      2.47% |    10958145     96.95%     99.42% |       66066      0.58%    100.00%
system.ruby.L1Cache_Controller.MM.L1_Replacement::total     11303170                      
system.ruby.L1Cache_Controller.MM.Fwd_GETX |         697     28.16%     28.16% |         615     24.85%     53.01% |         683     27.60%     80.61% |         480     19.39%    100.00%
system.ruby.L1Cache_Controller.MM.Fwd_GETX::total         2475                      
system.ruby.L1Cache_Controller.MM.Fwd_GETS |        6832     33.11%     33.11% |        6133     29.72%     62.83% |        2004      9.71%     72.54% |        5667     27.46%    100.00%
system.ruby.L1Cache_Controller.MM.Fwd_GETS::total        20636                      
system.ruby.L1Cache_Controller.IS.Data_Exclusive |      163403      1.44%      1.44% |       67686      0.60%      2.04% |    11057909     97.47%     99.51% |       55983      0.49%    100.00%
system.ruby.L1Cache_Controller.IS.Data_Exclusive::total     11344981                      
system.ruby.L1Cache_Controller.IS.DataS_fromL1 |        6201     26.52%     26.52% |        8434     36.07%     62.59% |        3838     16.41%     79.00% |        4911     21.00%    100.00%
system.ruby.L1Cache_Controller.IS.DataS_fromL1::total        23384                      
system.ruby.L1Cache_Controller.IS.Data_all_Acks |      126280     24.55%     24.55% |       88005     17.11%     41.66% |      212407     41.29%     82.95% |       87718     17.05%    100.00%
system.ruby.L1Cache_Controller.IS.Data_all_Acks::total       514410                      
system.ruby.L1Cache_Controller.IM.Data   |        2468     41.36%     41.36% |         277      4.64%     46.00% |        1236     20.71%     66.72% |        1986     33.28%    100.00%
system.ruby.L1Cache_Controller.IM.Data::total         5967                      
system.ruby.L1Cache_Controller.IM.Data_all_Acks |       41213      5.31%      5.31% |       26354      3.40%      8.71% |      690453     89.03%     97.74% |       17495      2.26%    100.00%
system.ruby.L1Cache_Controller.IM.Data_all_Acks::total       775515                      
system.ruby.L1Cache_Controller.IM.Ack    |           0      0.00%      0.00% |           1    100.00%    100.00% |           0      0.00%    100.00% |           0      0.00%    100.00%
system.ruby.L1Cache_Controller.IM.Ack::total            1                      
system.ruby.L1Cache_Controller.SM.Inv    |           0      0.00%      0.00% |           0      0.00%      0.00% |           1    100.00%    100.00% |           0      0.00%    100.00%
system.ruby.L1Cache_Controller.SM.Inv::total            1                      
system.ruby.L1Cache_Controller.SM.Ack    |       19570     59.55%     59.55% |        2862      8.71%     68.26% |        5885     17.91%     86.17% |        4546     13.83%    100.00%
system.ruby.L1Cache_Controller.SM.Ack::total        32863                      
system.ruby.L1Cache_Controller.SM.Ack_all |        8835     49.99%     49.99% |        2106     11.92%     61.91% |        3148     17.81%     79.72% |        3583     20.28%    100.00%
system.ruby.L1Cache_Controller.SM.Ack_all::total        17672                      
system.ruby.L1Cache_Controller.M_I.WB_Ack |      200847      1.66%      1.66% |       84477      0.70%      2.36% |    11748402     97.09%     99.45% |       66760      0.55%    100.00%
system.ruby.L1Cache_Controller.M_I.WB_Ack::total     12100486                      
system.ruby.L1Cache_Controller.S_IL0.L0_Invalidate_Own |      125324     24.51%     24.51% |       87999     17.21%     41.72% |      213982     41.84%     83.56% |       84075     16.44%    100.00%
system.ruby.L1Cache_Controller.S_IL0.L0_Invalidate_Own::total       511380                      
system.ruby.L1Cache_Controller.S_IL0.L0_Invalidate_Else |        5205     21.29%     21.29% |        9525     38.97%     60.26% |         981      4.01%     64.27% |        8733     35.73%    100.00%
system.ruby.L1Cache_Controller.S_IL0.L0_Invalidate_Else::total        24444                      
system.ruby.L1Cache_Controller.S_IL0.L0_Ack |      130529     24.36%     24.36% |       97524     18.20%     42.56% |      214963     40.12%     82.68% |       92808     17.32%    100.00%
system.ruby.L1Cache_Controller.S_IL0.L0_Ack::total       535824                      
system.ruby.L1Cache_Controller.E_IL0.L0_DataAck |         907      3.28%      3.28% |         558      2.02%      5.30% |       25736     93.14%     98.44% |         432      1.56%    100.00%
system.ruby.L1Cache_Controller.E_IL0.L0_DataAck::total        27633                      
system.ruby.L1Cache_Controller.E_IL0.L0_Invalidate_Own |        5969      0.72%      0.72% |        1440      0.17%      0.90% |      815943     99.00%     99.90% |         855      0.10%    100.00%
system.ruby.L1Cache_Controller.E_IL0.L0_Invalidate_Own::total       824207                      
system.ruby.L1Cache_Controller.E_IL0.L0_Invalidate_Else |        1173     26.42%     26.42% |        1874     42.22%     68.64% |         214      4.82%     73.46% |        1178     26.54%    100.00%
system.ruby.L1Cache_Controller.E_IL0.L0_Invalidate_Else::total         4439                      
system.ruby.L1Cache_Controller.E_IL0.L0_Ack |        6235      0.78%      0.78% |        2756      0.34%      1.12% |      790421     98.68%     99.80% |        1601      0.20%    100.00%
system.ruby.L1Cache_Controller.E_IL0.L0_Ack::total       801013                      
system.ruby.L1Cache_Controller.M_IL0.L0_DataAck |       12501     20.69%     20.69% |        5238      8.67%     29.36% |       37041     61.31%     90.67% |        5637      9.33%    100.00%
system.ruby.L1Cache_Controller.M_IL0.L0_DataAck::total        60417                      
system.ruby.L1Cache_Controller.M_IL0.L0_Invalidate_Own |       13132      2.97%      2.97% |        4411      1.00%      3.97% |      419582     95.01%     98.98% |        4515      1.02%    100.00%
system.ruby.L1Cache_Controller.M_IL0.L0_Invalidate_Own::total       441640                      
system.ruby.L1Cache_Controller.M_IL0.L0_Invalidate_Else |        4349     35.78%     35.78% |        3548     29.19%     64.97% |        1109      9.12%     74.09% |        3149     25.91%    100.00%
system.ruby.L1Cache_Controller.M_IL0.L0_Invalidate_Else::total        12155                      
system.ruby.L1Cache_Controller.M_IL0.L0_Ack |        4980      1.27%      1.27% |        2721      0.69%      1.96% |      383650     97.53%     99.48% |        2027      0.52%    100.00%
system.ruby.L1Cache_Controller.M_IL0.L0_Ack::total       393378                      
system.ruby.L2Cache_Controller.L1_GETS       11883013      0.00%      0.00%
system.ruby.L2Cache_Controller.L1_GETX         781486      0.00%      0.00%
system.ruby.L2Cache_Controller.L1_UPGRADE        11706      0.00%      0.00%
system.ruby.L2Cache_Controller.L1_PUTX       12100486      0.00%      0.00%
system.ruby.L2Cache_Controller.L2_Replacement       819383      0.00%      0.00%
system.ruby.L2Cache_Controller.L2_Replacement_clean       660705      0.00%      0.00%
system.ruby.L2Cache_Controller.Mem_Data       1497235      0.00%      0.00%
system.ruby.L2Cache_Controller.Mem_Ack        1480106      0.00%      0.00%
system.ruby.L2Cache_Controller.WB_Data          17609      0.00%      0.00%
system.ruby.L2Cache_Controller.WB_Data_clean        16613      0.00%      0.00%
system.ruby.L2Cache_Controller.Ack              11587      0.00%      0.00%
system.ruby.L2Cache_Controller.Ack_all           6174      0.00%      0.00%
system.ruby.L2Cache_Controller.Unblock          23384      0.00%      0.00%
system.ruby.L2Cache_Controller.Exclusive_Unblock     12138168      0.00%      0.00%
system.ruby.L2Cache_Controller.MEM_Inv             36      0.00%      0.00%
system.ruby.L2Cache_Controller.NP.L1_GETS      1113246      0.00%      0.00%
system.ruby.L2Cache_Controller.NP.L1_GETX       383989      0.00%      0.00%
system.ruby.L2Cache_Controller.SS.L1_GETS       514388      0.00%      0.00%
system.ruby.L2Cache_Controller.SS.L1_GETX         5968      0.00%      0.00%
system.ruby.L2Cache_Controller.SS.L1_UPGRADE        11705      0.00%      0.00%
system.ruby.L2Cache_Controller.SS.L2_Replacement          272      0.00%      0.00%
system.ruby.L2Cache_Controller.SS.L2_Replacement_clean         4983      0.00%      0.00%
system.ruby.L2Cache_Controller.M.L1_GETS     10231746      0.00%      0.00%
system.ruby.L2Cache_Controller.M.L1_GETX       389020      0.00%      0.00%
system.ruby.L2Cache_Controller.M.L2_Replacement       817685      0.00%      0.00%
system.ruby.L2Cache_Controller.M.L2_Replacement_clean       645397      0.00%      0.00%
system.ruby.L2Cache_Controller.M.MEM_Inv           12      0.00%      0.00%
system.ruby.L2Cache_Controller.MT.L1_GETS        23384      0.00%      0.00%
system.ruby.L2Cache_Controller.MT.L1_GETX         2505      0.00%      0.00%
system.ruby.L2Cache_Controller.MT.L1_PUTX     12100486      0.00%      0.00%
system.ruby.L2Cache_Controller.MT.L2_Replacement         1426      0.00%      0.00%
system.ruby.L2Cache_Controller.MT.L2_Replacement_clean        10325      0.00%      0.00%
system.ruby.L2Cache_Controller.MT.MEM_Inv            6      0.00%      0.00%
system.ruby.L2Cache_Controller.M_I.Mem_Ack      1480106      0.00%      0.00%
system.ruby.L2Cache_Controller.M_I.MEM_Inv           12      0.00%      0.00%
system.ruby.L2Cache_Controller.MT_I.WB_Data         1224      0.00%      0.00%
system.ruby.L2Cache_Controller.MT_I.WB_Data_clean           91      0.00%      0.00%
system.ruby.L2Cache_Controller.MT_I.Ack_all          117      0.00%      0.00%
system.ruby.L2Cache_Controller.MT_I.MEM_Inv            6      0.00%      0.00%
system.ruby.L2Cache_Controller.MCT_I.WB_Data         5940      0.00%      0.00%
system.ruby.L2Cache_Controller.MCT_I.WB_Data_clean         3583      0.00%      0.00%
system.ruby.L2Cache_Controller.MCT_I.Ack_all          802      0.00%      0.00%
system.ruby.L2Cache_Controller.I_I.Ack          11244      0.00%      0.00%
system.ruby.L2Cache_Controller.I_I.Ack_all         4983      0.00%      0.00%
system.ruby.L2Cache_Controller.S_I.Ack            343      0.00%      0.00%
system.ruby.L2Cache_Controller.S_I.Ack_all          272      0.00%      0.00%
system.ruby.L2Cache_Controller.ISS.L1_GETS           11      0.00%      0.00%
system.ruby.L2Cache_Controller.ISS.Mem_Data      1113235      0.00%      0.00%
system.ruby.L2Cache_Controller.IS.Mem_Data           11      0.00%      0.00%
system.ruby.L2Cache_Controller.IM.Mem_Data       383989      0.00%      0.00%
system.ruby.L2Cache_Controller.SS_MB.L1_GETS           52      0.00%      0.00%
system.ruby.L2Cache_Controller.SS_MB.L1_UPGRADE            1      0.00%      0.00%
system.ruby.L2Cache_Controller.SS_MB.Exclusive_Unblock        17673      0.00%      0.00%
system.ruby.L2Cache_Controller.MT_MB.L1_GETS          181      0.00%      0.00%
system.ruby.L2Cache_Controller.MT_MB.L1_GETX            3      0.00%      0.00%
system.ruby.L2Cache_Controller.MT_MB.Exclusive_Unblock     12120495      0.00%      0.00%
system.ruby.L2Cache_Controller.MT_IIB.L1_GETS            5      0.00%      0.00%
system.ruby.L2Cache_Controller.MT_IIB.L1_GETX            1      0.00%      0.00%
system.ruby.L2Cache_Controller.MT_IIB.WB_Data        10436      0.00%      0.00%
system.ruby.L2Cache_Controller.MT_IIB.WB_Data_clean        12918      0.00%      0.00%
system.ruby.L2Cache_Controller.MT_IIB.Unblock           30      0.00%      0.00%
system.ruby.L2Cache_Controller.MT_IB.WB_Data            9      0.00%      0.00%
system.ruby.L2Cache_Controller.MT_IB.WB_Data_clean           21      0.00%      0.00%
system.ruby.L2Cache_Controller.MT_SB.Unblock        23354      0.00%      0.00%

---------- End Simulation Statistics   ----------
