
---------- Begin Simulation Statistics ----------
sim_seconds                                  1.195739                       # Number of seconds simulated
sim_ticks                                1195739006000                       # Number of ticks simulated
final_tick                               53619187879001                       # Number of ticks from beginning of simulation (restored from checkpoints and never reset)
sim_freq                                 1000000000000                       # Frequency of simulated ticks
host_inst_rate                                 123340                       # Simulator instruction rate (inst/s)
host_op_rate                                   165023                       # Simulator op (including micro ops) rate (op/s)
host_tick_rate                              272346394                       # Simulator tick rate (ticks/s)
host_mem_usage                                1821508                       # Number of bytes of host memory used
host_seconds                                  4390.51                       # Real time elapsed on the host
sim_insts                                   541525226                       # Number of instructions simulated
sim_ops                                     724533557                       # Number of ops (including micro ops) simulated
system.voltage_domain.voltage                       1                       # Voltage in Volts
system.clk_domain.clock                          1000                       # Clock period in ticks
system.mem_ctrls.bytes_read::ruby.dir_cntrl0    166536128                       # Number of bytes read from this memory
system.mem_ctrls.bytes_read::total          166536128                       # Number of bytes read from this memory
system.mem_ctrls.bytes_written::ruby.dir_cntrl0     96096896                       # Number of bytes written to this memory
system.mem_ctrls.bytes_written::total        96096896                       # Number of bytes written to this memory
system.mem_ctrls.num_reads::ruby.dir_cntrl0      2602127                       # Number of read requests responded to by this memory
system.mem_ctrls.num_reads::total             2602127                       # Number of read requests responded to by this memory
system.mem_ctrls.num_writes::ruby.dir_cntrl0      1501514                       # Number of write requests responded to by this memory
system.mem_ctrls.num_writes::total            1501514                       # Number of write requests responded to by this memory
system.mem_ctrls.bw_read::ruby.dir_cntrl0    139274647                       # Total read bandwidth from this memory (bytes/s)
system.mem_ctrls.bw_read::total             139274647                       # Total read bandwidth from this memory (bytes/s)
system.mem_ctrls.bw_write::ruby.dir_cntrl0     80366113                       # Write bandwidth from this memory (bytes/s)
system.mem_ctrls.bw_write::total             80366113                       # Write bandwidth from this memory (bytes/s)
system.mem_ctrls.bw_total::ruby.dir_cntrl0    219640760                       # Total bandwidth to/from this memory (bytes/s)
system.mem_ctrls.bw_total::total            219640760                       # Total bandwidth to/from this memory (bytes/s)
system.mem_ctrls.readReqs                     2602127                       # Number of read requests accepted
system.mem_ctrls.writeReqs                    1501514                       # Number of write requests accepted
system.mem_ctrls.readBursts                   2602127                       # Number of DRAM read bursts, including those serviced by the write queue
system.mem_ctrls.writeBursts                  1501514                       # Number of DRAM write bursts, including those merged in the write queue
system.mem_ctrls.bytesReadDRAM              166499328                       # Total number of bytes read from DRAM
system.mem_ctrls.bytesReadWrQ                   36800                       # Total number of bytes read from write queue
system.mem_ctrls.bytesWritten                96095296                       # Total number of bytes written to DRAM
system.mem_ctrls.bytesReadSys               166536128                       # Total read bytes from the system interface side
system.mem_ctrls.bytesWrittenSys             96096896                       # Total written bytes from the system interface side
system.mem_ctrls.servicedByWrQ                    575                       # Number of DRAM read bursts serviced by the write queue
system.mem_ctrls.mergedWrBursts                     0                       # Number of DRAM write bursts merged with an existing one
system.mem_ctrls.neitherReadNorWriteReqs            0                       # Number of requests that are neither read nor write
system.mem_ctrls.perBankRdBursts::0            163724                       # Per bank write bursts
system.mem_ctrls.perBankRdBursts::1            164819                       # Per bank write bursts
system.mem_ctrls.perBankRdBursts::2            161680                       # Per bank write bursts
system.mem_ctrls.perBankRdBursts::3            162186                       # Per bank write bursts
system.mem_ctrls.perBankRdBursts::4            161562                       # Per bank write bursts
system.mem_ctrls.perBankRdBursts::5            161378                       # Per bank write bursts
system.mem_ctrls.perBankRdBursts::6            164216                       # Per bank write bursts
system.mem_ctrls.perBankRdBursts::7            161862                       # Per bank write bursts
system.mem_ctrls.perBankRdBursts::8            162580                       # Per bank write bursts
system.mem_ctrls.perBankRdBursts::9            162545                       # Per bank write bursts
system.mem_ctrls.perBankRdBursts::10           162158                       # Per bank write bursts
system.mem_ctrls.perBankRdBursts::11           161678                       # Per bank write bursts
system.mem_ctrls.perBankRdBursts::12           162829                       # Per bank write bursts
system.mem_ctrls.perBankRdBursts::13           163491                       # Per bank write bursts
system.mem_ctrls.perBankRdBursts::14           161632                       # Per bank write bursts
system.mem_ctrls.perBankRdBursts::15           163212                       # Per bank write bursts
system.mem_ctrls.perBankWrBursts::0             93859                       # Per bank write bursts
system.mem_ctrls.perBankWrBursts::1             95935                       # Per bank write bursts
system.mem_ctrls.perBankWrBursts::2             93582                       # Per bank write bursts
system.mem_ctrls.perBankWrBursts::3             93309                       # Per bank write bursts
system.mem_ctrls.perBankWrBursts::4             92381                       # Per bank write bursts
system.mem_ctrls.perBankWrBursts::5             92979                       # Per bank write bursts
system.mem_ctrls.perBankWrBursts::6             95123                       # Per bank write bursts
system.mem_ctrls.perBankWrBursts::7             93704                       # Per bank write bursts
system.mem_ctrls.perBankWrBursts::8             94300                       # Per bank write bursts
system.mem_ctrls.perBankWrBursts::9             94001                       # Per bank write bursts
system.mem_ctrls.perBankWrBursts::10            94058                       # Per bank write bursts
system.mem_ctrls.perBankWrBursts::11            93843                       # Per bank write bursts
system.mem_ctrls.perBankWrBursts::12            94306                       # Per bank write bursts
system.mem_ctrls.perBankWrBursts::13            94272                       # Per bank write bursts
system.mem_ctrls.perBankWrBursts::14            92471                       # Per bank write bursts
system.mem_ctrls.perBankWrBursts::15            93366                       # Per bank write bursts
system.mem_ctrls.numRdRetry                         0                       # Number of times read queue was full causing retry
system.mem_ctrls.numWrRetry                         0                       # Number of times write queue was full causing retry
system.mem_ctrls.totGap                  1195738925000                       # Total gap between requests
system.mem_ctrls.readPktSize::0                     0                       # Read request sizes (log2)
system.mem_ctrls.readPktSize::1                     0                       # Read request sizes (log2)
system.mem_ctrls.readPktSize::2                     0                       # Read request sizes (log2)
system.mem_ctrls.readPktSize::3                     0                       # Read request sizes (log2)
system.mem_ctrls.readPktSize::4                     0                       # Read request sizes (log2)
system.mem_ctrls.readPktSize::5                     0                       # Read request sizes (log2)
system.mem_ctrls.readPktSize::6               2602127                       # Read request sizes (log2)
system.mem_ctrls.writePktSize::0                    0                       # Write request sizes (log2)
system.mem_ctrls.writePktSize::1                    0                       # Write request sizes (log2)
system.mem_ctrls.writePktSize::2                    0                       # Write request sizes (log2)
system.mem_ctrls.writePktSize::3                    0                       # Write request sizes (log2)
system.mem_ctrls.writePktSize::4                    0                       # Write request sizes (log2)
system.mem_ctrls.writePktSize::5                    0                       # Write request sizes (log2)
system.mem_ctrls.writePktSize::6              1501514                       # Write request sizes (log2)
system.mem_ctrls.rdQLenPdf::0                 2596336                       # What read queue length does an incoming req see
system.mem_ctrls.rdQLenPdf::1                    5216                       # What read queue length does an incoming req see
system.mem_ctrls.rdQLenPdf::2                       0                       # What read queue length does an incoming req see
system.mem_ctrls.rdQLenPdf::3                       0                       # What read queue length does an incoming req see
system.mem_ctrls.rdQLenPdf::4                       0                       # What read queue length does an incoming req see
system.mem_ctrls.rdQLenPdf::5                       0                       # What read queue length does an incoming req see
system.mem_ctrls.rdQLenPdf::6                       0                       # What read queue length does an incoming req see
system.mem_ctrls.rdQLenPdf::7                       0                       # What read queue length does an incoming req see
system.mem_ctrls.rdQLenPdf::8                       0                       # What read queue length does an incoming req see
system.mem_ctrls.rdQLenPdf::9                       0                       # What read queue length does an incoming req see
system.mem_ctrls.rdQLenPdf::10                      0                       # What read queue length does an incoming req see
system.mem_ctrls.rdQLenPdf::11                      0                       # What read queue length does an incoming req see
system.mem_ctrls.rdQLenPdf::12                      0                       # What read queue length does an incoming req see
system.mem_ctrls.rdQLenPdf::13                      0                       # What read queue length does an incoming req see
system.mem_ctrls.rdQLenPdf::14                      0                       # What read queue length does an incoming req see
system.mem_ctrls.rdQLenPdf::15                      0                       # What read queue length does an incoming req see
system.mem_ctrls.rdQLenPdf::16                      0                       # What read queue length does an incoming req see
system.mem_ctrls.rdQLenPdf::17                      0                       # What read queue length does an incoming req see
system.mem_ctrls.rdQLenPdf::18                      0                       # What read queue length does an incoming req see
system.mem_ctrls.rdQLenPdf::19                      0                       # What read queue length does an incoming req see
system.mem_ctrls.rdQLenPdf::20                      0                       # What read queue length does an incoming req see
system.mem_ctrls.rdQLenPdf::21                      0                       # What read queue length does an incoming req see
system.mem_ctrls.rdQLenPdf::22                      0                       # What read queue length does an incoming req see
system.mem_ctrls.rdQLenPdf::23                      0                       # What read queue length does an incoming req see
system.mem_ctrls.rdQLenPdf::24                      0                       # What read queue length does an incoming req see
system.mem_ctrls.rdQLenPdf::25                      0                       # What read queue length does an incoming req see
system.mem_ctrls.rdQLenPdf::26                      0                       # What read queue length does an incoming req see
system.mem_ctrls.rdQLenPdf::27                      0                       # What read queue length does an incoming req see
system.mem_ctrls.rdQLenPdf::28                      0                       # What read queue length does an incoming req see
system.mem_ctrls.rdQLenPdf::29                      0                       # What read queue length does an incoming req see
system.mem_ctrls.rdQLenPdf::30                      0                       # What read queue length does an incoming req see
system.mem_ctrls.rdQLenPdf::31                      0                       # What read queue length does an incoming req see
system.mem_ctrls.wrQLenPdf::0                       1                       # What write queue length does an incoming req see
system.mem_ctrls.wrQLenPdf::1                       1                       # What write queue length does an incoming req see
system.mem_ctrls.wrQLenPdf::2                       1                       # What write queue length does an incoming req see
system.mem_ctrls.wrQLenPdf::3                       1                       # What write queue length does an incoming req see
system.mem_ctrls.wrQLenPdf::4                       1                       # What write queue length does an incoming req see
system.mem_ctrls.wrQLenPdf::5                       1                       # What write queue length does an incoming req see
system.mem_ctrls.wrQLenPdf::6                       1                       # What write queue length does an incoming req see
system.mem_ctrls.wrQLenPdf::7                       1                       # What write queue length does an incoming req see
system.mem_ctrls.wrQLenPdf::8                       1                       # What write queue length does an incoming req see
system.mem_ctrls.wrQLenPdf::9                       1                       # What write queue length does an incoming req see
system.mem_ctrls.wrQLenPdf::10                      1                       # What write queue length does an incoming req see
system.mem_ctrls.wrQLenPdf::11                      1                       # What write queue length does an incoming req see
system.mem_ctrls.wrQLenPdf::12                      1                       # What write queue length does an incoming req see
system.mem_ctrls.wrQLenPdf::13                      1                       # What write queue length does an incoming req see
system.mem_ctrls.wrQLenPdf::14                      1                       # What write queue length does an incoming req see
system.mem_ctrls.wrQLenPdf::15                    964                       # What write queue length does an incoming req see
system.mem_ctrls.wrQLenPdf::16                   1119                       # What write queue length does an incoming req see
system.mem_ctrls.wrQLenPdf::17                  92854                       # What write queue length does an incoming req see
system.mem_ctrls.wrQLenPdf::18                  93780                       # What write queue length does an incoming req see
system.mem_ctrls.wrQLenPdf::19                  93778                       # What write queue length does an incoming req see
system.mem_ctrls.wrQLenPdf::20                  93789                       # What write queue length does an incoming req see
system.mem_ctrls.wrQLenPdf::21                  93805                       # What write queue length does an incoming req see
system.mem_ctrls.wrQLenPdf::22                  93791                       # What write queue length does an incoming req see
system.mem_ctrls.wrQLenPdf::23                  93792                       # What write queue length does an incoming req see
system.mem_ctrls.wrQLenPdf::24                  93809                       # What write queue length does an incoming req see
system.mem_ctrls.wrQLenPdf::25                  93786                       # What write queue length does an incoming req see
system.mem_ctrls.wrQLenPdf::26                  93780                       # What write queue length does an incoming req see
system.mem_ctrls.wrQLenPdf::27                  93769                       # What write queue length does an incoming req see
system.mem_ctrls.wrQLenPdf::28                  93755                       # What write queue length does an incoming req see
system.mem_ctrls.wrQLenPdf::29                  93735                       # What write queue length does an incoming req see
system.mem_ctrls.wrQLenPdf::30                  93746                       # What write queue length does an incoming req see
system.mem_ctrls.wrQLenPdf::31                  93729                       # What write queue length does an incoming req see
system.mem_ctrls.wrQLenPdf::32                  93716                       # What write queue length does an incoming req see
system.mem_ctrls.wrQLenPdf::33                      2                       # What write queue length does an incoming req see
system.mem_ctrls.wrQLenPdf::34                      0                       # What write queue length does an incoming req see
system.mem_ctrls.wrQLenPdf::35                      0                       # What write queue length does an incoming req see
system.mem_ctrls.wrQLenPdf::36                      0                       # What write queue length does an incoming req see
system.mem_ctrls.wrQLenPdf::37                      0                       # What write queue length does an incoming req see
system.mem_ctrls.wrQLenPdf::38                      0                       # What write queue length does an incoming req see
system.mem_ctrls.wrQLenPdf::39                      0                       # What write queue length does an incoming req see
system.mem_ctrls.wrQLenPdf::40                      0                       # What write queue length does an incoming req see
system.mem_ctrls.wrQLenPdf::41                      0                       # What write queue length does an incoming req see
system.mem_ctrls.wrQLenPdf::42                      0                       # What write queue length does an incoming req see
system.mem_ctrls.wrQLenPdf::43                      0                       # What write queue length does an incoming req see
system.mem_ctrls.wrQLenPdf::44                      0                       # What write queue length does an incoming req see
system.mem_ctrls.wrQLenPdf::45                      0                       # What write queue length does an incoming req see
system.mem_ctrls.wrQLenPdf::46                      0                       # What write queue length does an incoming req see
system.mem_ctrls.wrQLenPdf::47                      0                       # What write queue length does an incoming req see
system.mem_ctrls.wrQLenPdf::48                      0                       # What write queue length does an incoming req see
system.mem_ctrls.wrQLenPdf::49                      0                       # What write queue length does an incoming req see
system.mem_ctrls.wrQLenPdf::50                      0                       # What write queue length does an incoming req see
system.mem_ctrls.wrQLenPdf::51                      0                       # What write queue length does an incoming req see
system.mem_ctrls.wrQLenPdf::52                      0                       # What write queue length does an incoming req see
system.mem_ctrls.wrQLenPdf::53                      0                       # What write queue length does an incoming req see
system.mem_ctrls.wrQLenPdf::54                      0                       # What write queue length does an incoming req see
system.mem_ctrls.wrQLenPdf::55                      0                       # What write queue length does an incoming req see
system.mem_ctrls.wrQLenPdf::56                      0                       # What write queue length does an incoming req see
system.mem_ctrls.wrQLenPdf::57                      0                       # What write queue length does an incoming req see
system.mem_ctrls.wrQLenPdf::58                      0                       # What write queue length does an incoming req see
system.mem_ctrls.wrQLenPdf::59                      0                       # What write queue length does an incoming req see
system.mem_ctrls.wrQLenPdf::60                      0                       # What write queue length does an incoming req see
system.mem_ctrls.wrQLenPdf::61                      0                       # What write queue length does an incoming req see
system.mem_ctrls.wrQLenPdf::62                      0                       # What write queue length does an incoming req see
system.mem_ctrls.wrQLenPdf::63                      0                       # What write queue length does an incoming req see
system.mem_ctrls.bytesPerActivate::samples      1821120                       # Bytes accessed per row activation
system.mem_ctrls.bytesPerActivate::mean    144.193991                       # Bytes accessed per row activation
system.mem_ctrls.bytesPerActivate::gmean    92.374261                       # Bytes accessed per row activation
system.mem_ctrls.bytesPerActivate::stdev   206.083062                       # Bytes accessed per row activation
system.mem_ctrls.bytesPerActivate::0-127      1400238     76.89%     76.89% # Bytes accessed per row activation
system.mem_ctrls.bytesPerActivate::128-255       167325      9.19%     86.08% # Bytes accessed per row activation
system.mem_ctrls.bytesPerActivate::256-383        67974      3.73%     89.81% # Bytes accessed per row activation
system.mem_ctrls.bytesPerActivate::384-511        45637      2.51%     92.32% # Bytes accessed per row activation
system.mem_ctrls.bytesPerActivate::512-639        37955      2.08%     94.40% # Bytes accessed per row activation
system.mem_ctrls.bytesPerActivate::640-767        26521      1.46%     95.86% # Bytes accessed per row activation
system.mem_ctrls.bytesPerActivate::768-895        17317      0.95%     96.81% # Bytes accessed per row activation
system.mem_ctrls.bytesPerActivate::896-1023        14187      0.78%     97.59% # Bytes accessed per row activation
system.mem_ctrls.bytesPerActivate::1024-1151        43966      2.41%    100.00% # Bytes accessed per row activation
system.mem_ctrls.bytesPerActivate::total      1821120                       # Bytes accessed per row activation
system.mem_ctrls.rdPerTurnAround::samples        93709                       # Reads before turning the bus around for writes
system.mem_ctrls.rdPerTurnAround::mean      28.032665                       # Reads before turning the bus around for writes
system.mem_ctrls.rdPerTurnAround::gmean     24.583014                       # Reads before turning the bus around for writes
system.mem_ctrls.rdPerTurnAround::stdev    121.154862                       # Reads before turning the bus around for writes
system.mem_ctrls.rdPerTurnAround::0-2047        93706    100.00%    100.00% # Reads before turning the bus around for writes
system.mem_ctrls.rdPerTurnAround::2048-4095            2      0.00%    100.00% # Reads before turning the bus around for writes
system.mem_ctrls.rdPerTurnAround::34816-36863            1      0.00%    100.00% # Reads before turning the bus around for writes
system.mem_ctrls.rdPerTurnAround::total         93709                       # Reads before turning the bus around for writes
system.mem_ctrls.wrPerTurnAround::samples        93709                       # Writes before turning the bus around for reads
system.mem_ctrls.wrPerTurnAround::mean      16.022890                       # Writes before turning the bus around for reads
system.mem_ctrls.wrPerTurnAround::gmean     16.021601                       # Writes before turning the bus around for reads
system.mem_ctrls.wrPerTurnAround::stdev      0.211301                       # Writes before turning the bus around for reads
system.mem_ctrls.wrPerTurnAround::16            92597     98.81%     98.81% # Writes before turning the bus around for reads
system.mem_ctrls.wrPerTurnAround::17               90      0.10%     98.91% # Writes before turning the bus around for reads
system.mem_ctrls.wrPerTurnAround::18             1011      1.08%     99.99% # Writes before turning the bus around for reads
system.mem_ctrls.wrPerTurnAround::19               11      0.01%    100.00% # Writes before turning the bus around for reads
system.mem_ctrls.wrPerTurnAround::total         93709                       # Writes before turning the bus around for reads
system.mem_ctrls.totQLat                  54502484874                       # Total ticks spent queuing
system.mem_ctrls.totMemAccLat            103281584874                       # Total ticks spent from burst creation until serviced by the DRAM
system.mem_ctrls.totBusLat                13007760000                       # Total ticks spent in databus transfers
system.mem_ctrls.avgQLat                     20949.99                       # Average queueing delay per DRAM burst
system.mem_ctrls.avgBusLat                    5000.00                       # Average bus latency per DRAM burst
system.mem_ctrls.avgMemAccLat                39699.99                       # Average memory access latency per DRAM burst
system.mem_ctrls.avgRdBW                       139.24                       # Average DRAM read bandwidth in MiByte/s
system.mem_ctrls.avgWrBW                        80.36                       # Average achieved write bandwidth in MiByte/s
system.mem_ctrls.avgRdBWSys                    139.27                       # Average system read bandwidth in MiByte/s
system.mem_ctrls.avgWrBWSys                     80.37                       # Average system write bandwidth in MiByte/s
system.mem_ctrls.peakBW                      12800.00                       # Theoretical peak bandwidth in MiByte/s
system.mem_ctrls.busUtil                         1.72                       # Data bus utilization in percentage
system.mem_ctrls.busUtilRead                     1.09                       # Data bus utilization in percentage for reads
system.mem_ctrls.busUtilWrite                    0.63                       # Data bus utilization in percentage for writes
system.mem_ctrls.avgRdQLen                       1.00                       # Average read queue length when enqueuing
system.mem_ctrls.avgWrQLen                      25.43                       # Average write queue length when enqueuing
system.mem_ctrls.readRowHits                  1477920                       # Number of row buffer hits during reads
system.mem_ctrls.writeRowHits                  803999                       # Number of row buffer hits during writes
system.mem_ctrls.readRowHitRate                 56.81                       # Row buffer hit rate for reads
system.mem_ctrls.writeRowHitRate                53.55                       # Row buffer hit rate for writes
system.mem_ctrls.avgGap                     291384.88                       # Average gap between requests
system.mem_ctrls.pageHitRate                    55.61                       # Row buffer hit rate, read and write combined
system.mem_ctrls_0.actEnergy               6920998560                       # Energy for activate commands per rank (pJ)
system.mem_ctrls_0.preEnergy               3776338500                       # Energy for precharge commands per rank (pJ)
system.mem_ctrls_0.readEnergy             10249925400                       # Energy for read commands per rank (pJ)
system.mem_ctrls_0.writeEnergy             4865650560                       # Energy for write commands per rank (pJ)
system.mem_ctrls_0.refreshEnergy          78536412240                       # Energy for refresh commands per rank (pJ)
system.mem_ctrls_0.actBackEnergy         251732658510                       # Energy for active background per rank (pJ)
system.mem_ctrls_0.preBackEnergy         500635715250                       # Energy for precharge background per rank (pJ)
system.mem_ctrls_0.totalEnergy           856717699020                       # Total energy per rank (pJ)
system.mem_ctrls_0.averagePower            712.492738                       # Core power per rank (mW)
system.mem_ctrls_0.memoryStateTime::IDLE 825461810999                       # Time in different power states
system.mem_ctrls_0.memoryStateTime::REF   39928200000                       # Time in different power states
system.mem_ctrls_0.memoryStateTime::PRE_PDN            0                       # Time in different power states
system.mem_ctrls_0.memoryStateTime::ACT  330343425501                       # Time in different power states
system.mem_ctrls_0.memoryStateTime::ACT_PDN            0                       # Time in different power states
system.mem_ctrls_1.actEnergy               6884914680                       # Energy for activate commands per rank (pJ)
system.mem_ctrls_1.preEnergy               3756649875                       # Energy for precharge commands per rank (pJ)
system.mem_ctrls_1.readEnergy             10240042800                       # Energy for read commands per rank (pJ)
system.mem_ctrls_1.writeEnergy             4863998160                       # Energy for write commands per rank (pJ)
system.mem_ctrls_1.refreshEnergy          78536412240                       # Energy for refresh commands per rank (pJ)
system.mem_ctrls_1.actBackEnergy         251298577575                       # Energy for active background per rank (pJ)
system.mem_ctrls_1.preBackEnergy         501016488000                       # Energy for precharge background per rank (pJ)
system.mem_ctrls_1.totalEnergy           856597083330                       # Total energy per rank (pJ)
system.mem_ctrls_1.averagePower            712.392427                       # Core power per rank (mW)
system.mem_ctrls_1.memoryStateTime::IDLE 826501546252                       # Time in different power states
system.mem_ctrls_1.memoryStateTime::REF   39928200000                       # Time in different power states
system.mem_ctrls_1.memoryStateTime::PRE_PDN            0                       # Time in different power states
system.mem_ctrls_1.memoryStateTime::ACT  329304666248                       # Time in different power states
system.mem_ctrls_1.memoryStateTime::ACT_PDN            0                       # Time in different power states
system.cpu_voltage_domain.voltage                   1                       # Voltage in Volts
system.cpu_clk_domain.clock                       500                       # Clock period in ticks
system.cpu0.apic_clk_domain.clock                8000                       # Clock period in ticks
system.cpu0.numCycles                      2391512229                       # number of cpu cycles simulated
system.cpu0.numWorkItemsStarted                     0                       # number of work items this cpu started
system.cpu0.numWorkItemsCompleted                   0                       # number of work items this cpu completed
system.cpu0.kern.inst.arm                           0                       # number of arm instructions executed
system.cpu0.kern.inst.quiesce                       0                       # number of quiesce instructions executed
system.cpu0.committedInsts                  534026842                       # Number of instructions committed
system.cpu0.committedOps                    709557806                       # Number of ops (including micro ops) committed
system.cpu0.num_int_alu_accesses            509170495                       # Number of integer alu accesses
system.cpu0.num_fp_alu_accesses             331101068                       # Number of float alu accesses
system.cpu0.num_func_calls                     446779                       # number of times a function call or return occured
system.cpu0.num_conditional_control_insts     31486665                       # number of instructions that are conditional controls
system.cpu0.num_int_insts                   509170495                       # number of integer instructions
system.cpu0.num_fp_insts                    331101068                       # number of float instructions
system.cpu0.num_int_register_reads         1070861226                       # number of times the integer registers were read
system.cpu0.num_int_register_writes         340141947                       # number of times the integer registers were written
system.cpu0.num_fp_register_reads           564014582                       # number of times the floating registers were read
system.cpu0.num_fp_register_writes          276695748                       # number of times the floating registers were written
system.cpu0.num_cc_register_reads           220473972                       # number of times the CC registers were read
system.cpu0.num_cc_register_writes          241478391                       # number of times the CC registers were written
system.cpu0.num_mem_refs                    152922050                       # number of memory refs
system.cpu0.num_load_insts                   94812614                       # Number of load instructions
system.cpu0.num_store_insts                  58109436                       # Number of store instructions
system.cpu0.num_idle_cycles              9619991.637787                       # Number of idle cycles
system.cpu0.num_busy_cycles              2381892237.362213                       # Number of busy cycles
system.cpu0.not_idle_fraction                0.995977                       # Percentage of non-idle cycles
system.cpu0.idle_fraction                    0.004023                       # Percentage of idle cycles
system.cpu0.Branches                         33915843                       # Number of branches fetched
system.cpu0.op_class::No_OpClass               957459      0.13%      0.13% # Class of executed instruction
system.cpu0.op_class::IntAlu                444366795     62.63%     62.76% # Class of executed instruction
system.cpu0.op_class::IntMult                   24896      0.00%     62.76% # Class of executed instruction
system.cpu0.op_class::IntDiv                   145178      0.02%     62.78% # Class of executed instruction
system.cpu0.op_class::FloatAdd              111149730     15.66%     78.45% # Class of executed instruction
system.cpu0.op_class::FloatCmp                      0      0.00%     78.45% # Class of executed instruction
system.cpu0.op_class::FloatCvt                      0      0.00%     78.45% # Class of executed instruction
system.cpu0.op_class::FloatMult                     0      0.00%     78.45% # Class of executed instruction
system.cpu0.op_class::FloatDiv                      0      0.00%     78.45% # Class of executed instruction
system.cpu0.op_class::FloatSqrt                     0      0.00%     78.45% # Class of executed instruction
system.cpu0.op_class::SimdAdd                       0      0.00%     78.45% # Class of executed instruction
system.cpu0.op_class::SimdAddAcc                    0      0.00%     78.45% # Class of executed instruction
system.cpu0.op_class::SimdAlu                       0      0.00%     78.45% # Class of executed instruction
system.cpu0.op_class::SimdCmp                       0      0.00%     78.45% # Class of executed instruction
system.cpu0.op_class::SimdCvt                       0      0.00%     78.45% # Class of executed instruction
system.cpu0.op_class::SimdMisc                      0      0.00%     78.45% # Class of executed instruction
system.cpu0.op_class::SimdMult                      0      0.00%     78.45% # Class of executed instruction
system.cpu0.op_class::SimdMultAcc                   0      0.00%     78.45% # Class of executed instruction
system.cpu0.op_class::SimdShift                     0      0.00%     78.45% # Class of executed instruction
system.cpu0.op_class::SimdShiftAcc                  0      0.00%     78.45% # Class of executed instruction
system.cpu0.op_class::SimdSqrt                      0      0.00%     78.45% # Class of executed instruction
system.cpu0.op_class::SimdFloatAdd                  0      0.00%     78.45% # Class of executed instruction
system.cpu0.op_class::SimdFloatAlu                  0      0.00%     78.45% # Class of executed instruction
system.cpu0.op_class::SimdFloatCmp                  0      0.00%     78.45% # Class of executed instruction
system.cpu0.op_class::SimdFloatCvt                  0      0.00%     78.45% # Class of executed instruction
system.cpu0.op_class::SimdFloatDiv                  0      0.00%     78.45% # Class of executed instruction
system.cpu0.op_class::SimdFloatMisc                 0      0.00%     78.45% # Class of executed instruction
system.cpu0.op_class::SimdFloatMult                 0      0.00%     78.45% # Class of executed instruction
system.cpu0.op_class::SimdFloatMultAcc              0      0.00%     78.45% # Class of executed instruction
system.cpu0.op_class::SimdFloatSqrt                 0      0.00%     78.45% # Class of executed instruction
system.cpu0.op_class::MemRead                94812614     13.36%     91.81% # Class of executed instruction
system.cpu0.op_class::MemWrite               58109436      8.19%    100.00% # Class of executed instruction
system.cpu0.op_class::IprAccess                     0      0.00%    100.00% # Class of executed instruction
system.cpu0.op_class::InstPrefetch                  0      0.00%    100.00% # Class of executed instruction
system.cpu0.op_class::total                 709566108                       # Class of executed instruction
system.cpu1.apic_clk_domain.clock                8000                       # Clock period in ticks
system.cpu1.numCycles                      2390656647                       # number of cpu cycles simulated
system.cpu1.numWorkItemsStarted                     0                       # number of work items this cpu started
system.cpu1.numWorkItemsCompleted                   0                       # number of work items this cpu completed
system.cpu1.kern.inst.arm                           0                       # number of arm instructions executed
system.cpu1.kern.inst.quiesce                       0                       # number of quiesce instructions executed
system.cpu1.committedInsts                     784107                       # Number of instructions committed
system.cpu1.committedOps                      1697141                       # Number of ops (including micro ops) committed
system.cpu1.num_int_alu_accesses              1660974                       # Number of integer alu accesses
system.cpu1.num_fp_alu_accesses                     0                       # Number of float alu accesses
system.cpu1.num_func_calls                      47714                       # number of times a function call or return occured
system.cpu1.num_conditional_control_insts       117020                       # number of instructions that are conditional controls
system.cpu1.num_int_insts                     1660974                       # number of integer instructions
system.cpu1.num_fp_insts                            0                       # number of float instructions
system.cpu1.num_int_register_reads            3372648                       # number of times the integer registers were read
system.cpu1.num_int_register_writes           1376099                       # number of times the integer registers were written
system.cpu1.num_fp_register_reads                   0                       # number of times the floating registers were read
system.cpu1.num_fp_register_writes                  0                       # number of times the floating registers were written
system.cpu1.num_cc_register_reads              937491                       # number of times the CC registers were read
system.cpu1.num_cc_register_writes             498547                       # number of times the CC registers were written
system.cpu1.num_mem_refs                       407354                       # number of memory refs
system.cpu1.num_load_insts                     253592                       # Number of load instructions
system.cpu1.num_store_insts                    153762                       # Number of store instructions
system.cpu1.num_idle_cycles              2386438095.380305                       # Number of idle cycles
system.cpu1.num_busy_cycles              4218551.619695                       # Number of busy cycles
system.cpu1.not_idle_fraction                0.001765                       # Percentage of non-idle cycles
system.cpu1.idle_fraction                    0.998235                       # Percentage of idle cycles
system.cpu1.Branches                           180046                       # Number of branches fetched
system.cpu1.op_class::No_OpClass                30279      1.78%      1.78% # Class of executed instruction
system.cpu1.op_class::IntAlu                  1245533     73.39%     75.17% # Class of executed instruction
system.cpu1.op_class::IntMult                    3534      0.21%     75.38% # Class of executed instruction
system.cpu1.op_class::IntDiv                    10444      0.62%     76.00% # Class of executed instruction
system.cpu1.op_class::FloatAdd                      0      0.00%     76.00% # Class of executed instruction
system.cpu1.op_class::FloatCmp                      0      0.00%     76.00% # Class of executed instruction
system.cpu1.op_class::FloatCvt                      0      0.00%     76.00% # Class of executed instruction
system.cpu1.op_class::FloatMult                     0      0.00%     76.00% # Class of executed instruction
system.cpu1.op_class::FloatDiv                      0      0.00%     76.00% # Class of executed instruction
system.cpu1.op_class::FloatSqrt                     0      0.00%     76.00% # Class of executed instruction
system.cpu1.op_class::SimdAdd                       0      0.00%     76.00% # Class of executed instruction
system.cpu1.op_class::SimdAddAcc                    0      0.00%     76.00% # Class of executed instruction
system.cpu1.op_class::SimdAlu                       0      0.00%     76.00% # Class of executed instruction
system.cpu1.op_class::SimdCmp                       0      0.00%     76.00% # Class of executed instruction
system.cpu1.op_class::SimdCvt                       0      0.00%     76.00% # Class of executed instruction
system.cpu1.op_class::SimdMisc                      0      0.00%     76.00% # Class of executed instruction
system.cpu1.op_class::SimdMult                      0      0.00%     76.00% # Class of executed instruction
system.cpu1.op_class::SimdMultAcc                   0      0.00%     76.00% # Class of executed instruction
system.cpu1.op_class::SimdShift                     0      0.00%     76.00% # Class of executed instruction
system.cpu1.op_class::SimdShiftAcc                  0      0.00%     76.00% # Class of executed instruction
system.cpu1.op_class::SimdSqrt                      0      0.00%     76.00% # Class of executed instruction
system.cpu1.op_class::SimdFloatAdd                  0      0.00%     76.00% # Class of executed instruction
system.cpu1.op_class::SimdFloatAlu                  0      0.00%     76.00% # Class of executed instruction
system.cpu1.op_class::SimdFloatCmp                  0      0.00%     76.00% # Class of executed instruction
system.cpu1.op_class::SimdFloatCvt                  0      0.00%     76.00% # Class of executed instruction
system.cpu1.op_class::SimdFloatDiv                  0      0.00%     76.00% # Class of executed instruction
system.cpu1.op_class::SimdFloatMisc                 0      0.00%     76.00% # Class of executed instruction
system.cpu1.op_class::SimdFloatMult                 0      0.00%     76.00% # Class of executed instruction
system.cpu1.op_class::SimdFloatMultAcc              0      0.00%     76.00% # Class of executed instruction
system.cpu1.op_class::SimdFloatSqrt                 0      0.00%     76.00% # Class of executed instruction
system.cpu1.op_class::MemRead                  253592     14.94%     90.94% # Class of executed instruction
system.cpu1.op_class::MemWrite                 153762      9.06%    100.00% # Class of executed instruction
system.cpu1.op_class::IprAccess                     0      0.00%    100.00% # Class of executed instruction
system.cpu1.op_class::InstPrefetch                  0      0.00%    100.00% # Class of executed instruction
system.cpu1.op_class::total                   1697144                       # Class of executed instruction
system.cpu2.apic_clk_domain.clock                8000                       # Clock period in ticks
system.cpu2.numCycles                      2390363899                       # number of cpu cycles simulated
system.cpu2.numWorkItemsStarted                     0                       # number of work items this cpu started
system.cpu2.numWorkItemsCompleted                   0                       # number of work items this cpu completed
system.cpu2.kern.inst.arm                           0                       # number of arm instructions executed
system.cpu2.kern.inst.quiesce                       0                       # number of quiesce instructions executed
system.cpu2.committedInsts                    2926533                       # Number of instructions committed
system.cpu2.committedOps                      5805947                       # Number of ops (including micro ops) committed
system.cpu2.num_int_alu_accesses              5705238                       # Number of integer alu accesses
system.cpu2.num_fp_alu_accesses                  1826                       # Number of float alu accesses
system.cpu2.num_func_calls                     148384                       # number of times a function call or return occured
system.cpu2.num_conditional_control_insts       493011                       # number of instructions that are conditional controls
system.cpu2.num_int_insts                     5705238                       # number of integer instructions
system.cpu2.num_fp_insts                         1826                       # number of float instructions
system.cpu2.num_int_register_reads           11356171                       # number of times the integer registers were read
system.cpu2.num_int_register_writes           4634404                       # number of times the integer registers were written
system.cpu2.num_fp_register_reads                3068                       # number of times the floating registers were read
system.cpu2.num_fp_register_writes               1448                       # number of times the floating registers were written
system.cpu2.num_cc_register_reads             3658634                       # number of times the CC registers were read
system.cpu2.num_cc_register_writes            1990572                       # number of times the CC registers were written
system.cpu2.num_mem_refs                      1312120                       # number of memory refs
system.cpu2.num_load_insts                     850151                       # Number of load instructions
system.cpu2.num_store_insts                    461969                       # Number of store instructions
system.cpu2.num_idle_cycles              2376941515.974763                       # Number of idle cycles
system.cpu2.num_busy_cycles              13422383.025237                       # Number of busy cycles
system.cpu2.not_idle_fraction                0.005615                       # Percentage of non-idle cycles
system.cpu2.idle_fraction                    0.994385                       # Percentage of idle cycles
system.cpu2.Branches                           668211                       # Number of branches fetched
system.cpu2.op_class::No_OpClass                37625      0.65%      0.65% # Class of executed instruction
system.cpu2.op_class::IntAlu                  4437514     76.43%     77.08% # Class of executed instruction
system.cpu2.op_class::IntMult                    5508      0.09%     77.17% # Class of executed instruction
system.cpu2.op_class::IntDiv                    11895      0.20%     77.38% # Class of executed instruction
system.cpu2.op_class::FloatAdd                   1376      0.02%     77.40% # Class of executed instruction
system.cpu2.op_class::FloatCmp                      0      0.00%     77.40% # Class of executed instruction
system.cpu2.op_class::FloatCvt                      0      0.00%     77.40% # Class of executed instruction
system.cpu2.op_class::FloatMult                     0      0.00%     77.40% # Class of executed instruction
system.cpu2.op_class::FloatDiv                      0      0.00%     77.40% # Class of executed instruction
system.cpu2.op_class::FloatSqrt                     0      0.00%     77.40% # Class of executed instruction
system.cpu2.op_class::SimdAdd                       0      0.00%     77.40% # Class of executed instruction
system.cpu2.op_class::SimdAddAcc                    0      0.00%     77.40% # Class of executed instruction
system.cpu2.op_class::SimdAlu                       0      0.00%     77.40% # Class of executed instruction
system.cpu2.op_class::SimdCmp                       0      0.00%     77.40% # Class of executed instruction
system.cpu2.op_class::SimdCvt                       0      0.00%     77.40% # Class of executed instruction
system.cpu2.op_class::SimdMisc                      0      0.00%     77.40% # Class of executed instruction
system.cpu2.op_class::SimdMult                      0      0.00%     77.40% # Class of executed instruction
system.cpu2.op_class::SimdMultAcc                   0      0.00%     77.40% # Class of executed instruction
system.cpu2.op_class::SimdShift                     0      0.00%     77.40% # Class of executed instruction
system.cpu2.op_class::SimdShiftAcc                  0      0.00%     77.40% # Class of executed instruction
system.cpu2.op_class::SimdSqrt                      0      0.00%     77.40% # Class of executed instruction
system.cpu2.op_class::SimdFloatAdd                  0      0.00%     77.40% # Class of executed instruction
system.cpu2.op_class::SimdFloatAlu                  0      0.00%     77.40% # Class of executed instruction
system.cpu2.op_class::SimdFloatCmp                  0      0.00%     77.40% # Class of executed instruction
system.cpu2.op_class::SimdFloatCvt                  0      0.00%     77.40% # Class of executed instruction
system.cpu2.op_class::SimdFloatDiv                  0      0.00%     77.40% # Class of executed instruction
system.cpu2.op_class::SimdFloatMisc                 0      0.00%     77.40% # Class of executed instruction
system.cpu2.op_class::SimdFloatMult                 0      0.00%     77.40% # Class of executed instruction
system.cpu2.op_class::SimdFloatMultAcc              0      0.00%     77.40% # Class of executed instruction
system.cpu2.op_class::SimdFloatSqrt                 0      0.00%     77.40% # Class of executed instruction
system.cpu2.op_class::MemRead                  850151     14.64%     92.04% # Class of executed instruction
system.cpu2.op_class::MemWrite                 461969      7.96%    100.00% # Class of executed instruction
system.cpu2.op_class::IprAccess                     0      0.00%    100.00% # Class of executed instruction
system.cpu2.op_class::InstPrefetch                  0      0.00%    100.00% # Class of executed instruction
system.cpu2.op_class::total                   5806038                       # Class of executed instruction
system.cpu3.apic_clk_domain.clock                8000                       # Clock period in ticks
system.cpu3.numCycles                      2395504022                       # number of cpu cycles simulated
system.cpu3.numWorkItemsStarted                     0                       # number of work items this cpu started
system.cpu3.numWorkItemsCompleted                   0                       # number of work items this cpu completed
system.cpu3.kern.inst.arm                           0                       # number of arm instructions executed
system.cpu3.kern.inst.quiesce                       0                       # number of quiesce instructions executed
system.cpu3.committedInsts                     965086                       # Number of instructions committed
system.cpu3.committedOps                      2070478                       # Number of ops (including micro ops) committed
system.cpu3.num_int_alu_accesses              2024663                       # Number of integer alu accesses
system.cpu3.num_fp_alu_accesses                    39                       # Number of float alu accesses
system.cpu3.num_func_calls                      58542                       # number of times a function call or return occured
system.cpu3.num_conditional_control_insts       142356                       # number of instructions that are conditional controls
system.cpu3.num_int_insts                     2024663                       # number of integer instructions
system.cpu3.num_fp_insts                           39                       # number of float instructions
system.cpu3.num_int_register_reads            4128326                       # number of times the integer registers were read
system.cpu3.num_int_register_writes           1676485                       # number of times the integer registers were written
system.cpu3.num_fp_register_reads                  63                       # number of times the floating registers were read
system.cpu3.num_fp_register_writes                 31                       # number of times the floating registers were written
system.cpu3.num_cc_register_reads             1130980                       # number of times the CC registers were read
system.cpu3.num_cc_register_writes             605981                       # number of times the CC registers were written
system.cpu3.num_mem_refs                       495052                       # number of memory refs
system.cpu3.num_load_insts                     307361                       # Number of load instructions
system.cpu3.num_store_insts                    187691                       # Number of store instructions
system.cpu3.num_idle_cycles              2390328408.592010                       # Number of idle cycles
system.cpu3.num_busy_cycles              5175613.407991                       # Number of busy cycles
system.cpu3.not_idle_fraction                0.002161                       # Percentage of non-idle cycles
system.cpu3.idle_fraction                    0.997839                       # Percentage of idle cycles
system.cpu3.Branches                           220005                       # Number of branches fetched
system.cpu3.op_class::No_OpClass                36301      1.75%      1.75% # Class of executed instruction
system.cpu3.op_class::IntAlu                  1522248     73.52%     75.27% # Class of executed instruction
system.cpu3.op_class::IntMult                    3745      0.18%     75.45% # Class of executed instruction
system.cpu3.op_class::IntDiv                    13124      0.63%     76.09% # Class of executed instruction
system.cpu3.op_class::FloatAdd                     30      0.00%     76.09% # Class of executed instruction
system.cpu3.op_class::FloatCmp                      0      0.00%     76.09% # Class of executed instruction
system.cpu3.op_class::FloatCvt                      0      0.00%     76.09% # Class of executed instruction
system.cpu3.op_class::FloatMult                     0      0.00%     76.09% # Class of executed instruction
system.cpu3.op_class::FloatDiv                      0      0.00%     76.09% # Class of executed instruction
system.cpu3.op_class::FloatSqrt                     0      0.00%     76.09% # Class of executed instruction
system.cpu3.op_class::SimdAdd                       0      0.00%     76.09% # Class of executed instruction
system.cpu3.op_class::SimdAddAcc                    0      0.00%     76.09% # Class of executed instruction
system.cpu3.op_class::SimdAlu                       0      0.00%     76.09% # Class of executed instruction
system.cpu3.op_class::SimdCmp                       0      0.00%     76.09% # Class of executed instruction
system.cpu3.op_class::SimdCvt                       0      0.00%     76.09% # Class of executed instruction
system.cpu3.op_class::SimdMisc                      0      0.00%     76.09% # Class of executed instruction
system.cpu3.op_class::SimdMult                      0      0.00%     76.09% # Class of executed instruction
system.cpu3.op_class::SimdMultAcc                   0      0.00%     76.09% # Class of executed instruction
system.cpu3.op_class::SimdShift                     0      0.00%     76.09% # Class of executed instruction
system.cpu3.op_class::SimdShiftAcc                  0      0.00%     76.09% # Class of executed instruction
system.cpu3.op_class::SimdSqrt                      0      0.00%     76.09% # Class of executed instruction
system.cpu3.op_class::SimdFloatAdd                  0      0.00%     76.09% # Class of executed instruction
system.cpu3.op_class::SimdFloatAlu                  0      0.00%     76.09% # Class of executed instruction
system.cpu3.op_class::SimdFloatCmp                  0      0.00%     76.09% # Class of executed instruction
system.cpu3.op_class::SimdFloatCvt                  0      0.00%     76.09% # Class of executed instruction
system.cpu3.op_class::SimdFloatDiv                  0      0.00%     76.09% # Class of executed instruction
system.cpu3.op_class::SimdFloatMisc                 0      0.00%     76.09% # Class of executed instruction
system.cpu3.op_class::SimdFloatMult                 0      0.00%     76.09% # Class of executed instruction
system.cpu3.op_class::SimdFloatMultAcc              0      0.00%     76.09% # Class of executed instruction
system.cpu3.op_class::SimdFloatSqrt                 0      0.00%     76.09% # Class of executed instruction
system.cpu3.op_class::MemRead                  307361     14.84%     90.93% # Class of executed instruction
system.cpu3.op_class::MemWrite                 187691      9.07%    100.00% # Class of executed instruction
system.cpu3.op_class::IprAccess                     0      0.00%    100.00% # Class of executed instruction
system.cpu3.op_class::InstPrefetch                  0      0.00%    100.00% # Class of executed instruction
system.cpu3.op_class::total                   2070500                       # Class of executed instruction
system.iobus.trans_dist::ReadReq                  712                       # Transaction distribution
system.iobus.trans_dist::ReadResp                 712                       # Transaction distribution
system.iobus.trans_dist::WriteReq                1467                       # Transaction distribution
system.iobus.trans_dist::WriteResp               1467                       # Transaction distribution
system.iobus.trans_dist::MessageReq                12                       # Transaction distribution
system.iobus.trans_dist::MessageResp               12                       # Transaction distribution
system.iobus.pkt_count_system.pc.south_bridge.io_apic.int_master::system.ruby.l1_cntrl0.sequencer.pio-slave-port            4                       # Packet count per connected master and slave (bytes)
system.iobus.pkt_count_system.pc.south_bridge.io_apic.int_master::system.ruby.l1_cntrl1.sequencer.pio-slave-port            2                       # Packet count per connected master and slave (bytes)
system.iobus.pkt_count_system.pc.south_bridge.io_apic.int_master::system.ruby.l1_cntrl2.sequencer.pio-slave-port            2                       # Packet count per connected master and slave (bytes)
system.iobus.pkt_count_system.pc.south_bridge.io_apic.int_master::system.ruby.l1_cntrl3.sequencer.pio-slave-port            2                       # Packet count per connected master and slave (bytes)
system.iobus.pkt_count_system.pc.south_bridge.io_apic.int_master::total           10                       # Packet count per connected master and slave (bytes)
system.iobus.pkt_count_system.ruby.l1_cntrl0.sequencer.mem-master-port::system.pc.south_bridge.io_apic.pio           14                       # Packet count per connected master and slave (bytes)
system.iobus.pkt_count_system.ruby.l1_cntrl0.sequencer.mem-master-port::system.pc.com_1.pio          130                       # Packet count per connected master and slave (bytes)
system.iobus.pkt_count_system.ruby.l1_cntrl0.sequencer.mem-master-port::system.ruby.l1_cntrl0.sequencer.pio-slave-port          618                       # Packet count per connected master and slave (bytes)
system.iobus.pkt_count_system.ruby.l1_cntrl0.sequencer.mem-master-port::system.ruby.l1_cntrl1.sequencer.pio-slave-port            2                       # Packet count per connected master and slave (bytes)
system.iobus.pkt_count_system.ruby.l1_cntrl0.sequencer.mem-master-port::system.ruby.l1_cntrl3.sequencer.pio-slave-port            2                       # Packet count per connected master and slave (bytes)
system.iobus.pkt_count_system.ruby.l1_cntrl0.sequencer.mem-master-port::total          766                       # Packet count per connected master and slave (bytes)
system.iobus.pkt_count_system.ruby.l1_cntrl1.sequencer.mem-master-port::system.pc.south_bridge.io_apic.pio            8                       # Packet count per connected master and slave (bytes)
system.iobus.pkt_count_system.ruby.l1_cntrl1.sequencer.mem-master-port::system.ruby.l1_cntrl1.sequencer.pio-slave-port          610                       # Packet count per connected master and slave (bytes)
system.iobus.pkt_count_system.ruby.l1_cntrl1.sequencer.mem-master-port::system.ruby.l1_cntrl2.sequencer.pio-slave-port            2                       # Packet count per connected master and slave (bytes)
system.iobus.pkt_count_system.ruby.l1_cntrl1.sequencer.mem-master-port::total          620                       # Packet count per connected master and slave (bytes)
system.iobus.pkt_count_system.ruby.l1_cntrl2.sequencer.mem-master-port::system.pc.south_bridge.io_apic.pio            8                       # Packet count per connected master and slave (bytes)
system.iobus.pkt_count_system.ruby.l1_cntrl2.sequencer.mem-master-port::system.ruby.l1_cntrl0.sequencer.pio-slave-port            2                       # Packet count per connected master and slave (bytes)
system.iobus.pkt_count_system.ruby.l1_cntrl2.sequencer.mem-master-port::system.ruby.l1_cntrl1.sequencer.pio-slave-port            2                       # Packet count per connected master and slave (bytes)
system.iobus.pkt_count_system.ruby.l1_cntrl2.sequencer.mem-master-port::system.ruby.l1_cntrl2.sequencer.pio-slave-port          620                       # Packet count per connected master and slave (bytes)
system.iobus.pkt_count_system.ruby.l1_cntrl2.sequencer.mem-master-port::system.ruby.l1_cntrl3.sequencer.pio-slave-port            2                       # Packet count per connected master and slave (bytes)
system.iobus.pkt_count_system.ruby.l1_cntrl2.sequencer.mem-master-port::total          634                       # Packet count per connected master and slave (bytes)
system.iobus.pkt_count_system.ruby.l1_cntrl3.sequencer.mem-master-port::system.pc.south_bridge.io_apic.pio            6                       # Packet count per connected master and slave (bytes)
system.iobus.pkt_count_system.ruby.l1_cntrl3.sequencer.mem-master-port::system.pc.com_1.pio         1734                       # Packet count per connected master and slave (bytes)
system.iobus.pkt_count_system.ruby.l1_cntrl3.sequencer.mem-master-port::system.ruby.l1_cntrl0.sequencer.pio-slave-port            2                       # Packet count per connected master and slave (bytes)
system.iobus.pkt_count_system.ruby.l1_cntrl3.sequencer.mem-master-port::system.ruby.l1_cntrl3.sequencer.pio-slave-port          610                       # Packet count per connected master and slave (bytes)
system.iobus.pkt_count_system.ruby.l1_cntrl3.sequencer.mem-master-port::total         2352                       # Packet count per connected master and slave (bytes)
system.iobus.pkt_count::total                    4382                       # Packet count per connected master and slave (bytes)
system.iobus.pkt_size_system.pc.south_bridge.io_apic.int_master::system.ruby.l1_cntrl0.sequencer.pio-slave-port            8                       # Cumulative packet size per connected master and slave (bytes)
system.iobus.pkt_size_system.pc.south_bridge.io_apic.int_master::system.ruby.l1_cntrl1.sequencer.pio-slave-port            4                       # Cumulative packet size per connected master and slave (bytes)
system.iobus.pkt_size_system.pc.south_bridge.io_apic.int_master::system.ruby.l1_cntrl2.sequencer.pio-slave-port            4                       # Cumulative packet size per connected master and slave (bytes)
system.iobus.pkt_size_system.pc.south_bridge.io_apic.int_master::system.ruby.l1_cntrl3.sequencer.pio-slave-port            4                       # Cumulative packet size per connected master and slave (bytes)
system.iobus.pkt_size_system.pc.south_bridge.io_apic.int_master::total           20                       # Cumulative packet size per connected master and slave (bytes)
system.iobus.pkt_size_system.ruby.l1_cntrl0.sequencer.mem-master-port::system.pc.south_bridge.io_apic.pio           28                       # Cumulative packet size per connected master and slave (bytes)
system.iobus.pkt_size_system.ruby.l1_cntrl0.sequencer.mem-master-port::system.pc.com_1.pio           65                       # Cumulative packet size per connected master and slave (bytes)
system.iobus.pkt_size_system.ruby.l1_cntrl0.sequencer.mem-master-port::system.ruby.l1_cntrl0.sequencer.pio-slave-port         1236                       # Cumulative packet size per connected master and slave (bytes)
system.iobus.pkt_size_system.ruby.l1_cntrl0.sequencer.mem-master-port::system.ruby.l1_cntrl1.sequencer.pio-slave-port            4                       # Cumulative packet size per connected master and slave (bytes)
system.iobus.pkt_size_system.ruby.l1_cntrl0.sequencer.mem-master-port::system.ruby.l1_cntrl3.sequencer.pio-slave-port            4                       # Cumulative packet size per connected master and slave (bytes)
system.iobus.pkt_size_system.ruby.l1_cntrl0.sequencer.mem-master-port::total         1337                       # Cumulative packet size per connected master and slave (bytes)
system.iobus.pkt_size_system.ruby.l1_cntrl1.sequencer.mem-master-port::system.pc.south_bridge.io_apic.pio           16                       # Cumulative packet size per connected master and slave (bytes)
system.iobus.pkt_size_system.ruby.l1_cntrl1.sequencer.mem-master-port::system.ruby.l1_cntrl1.sequencer.pio-slave-port         1220                       # Cumulative packet size per connected master and slave (bytes)
system.iobus.pkt_size_system.ruby.l1_cntrl1.sequencer.mem-master-port::system.ruby.l1_cntrl2.sequencer.pio-slave-port            4                       # Cumulative packet size per connected master and slave (bytes)
system.iobus.pkt_size_system.ruby.l1_cntrl1.sequencer.mem-master-port::total         1240                       # Cumulative packet size per connected master and slave (bytes)
system.iobus.pkt_size_system.ruby.l1_cntrl2.sequencer.mem-master-port::system.pc.south_bridge.io_apic.pio           16                       # Cumulative packet size per connected master and slave (bytes)
system.iobus.pkt_size_system.ruby.l1_cntrl2.sequencer.mem-master-port::system.ruby.l1_cntrl0.sequencer.pio-slave-port            4                       # Cumulative packet size per connected master and slave (bytes)
system.iobus.pkt_size_system.ruby.l1_cntrl2.sequencer.mem-master-port::system.ruby.l1_cntrl1.sequencer.pio-slave-port            4                       # Cumulative packet size per connected master and slave (bytes)
system.iobus.pkt_size_system.ruby.l1_cntrl2.sequencer.mem-master-port::system.ruby.l1_cntrl2.sequencer.pio-slave-port         1240                       # Cumulative packet size per connected master and slave (bytes)
system.iobus.pkt_size_system.ruby.l1_cntrl2.sequencer.mem-master-port::system.ruby.l1_cntrl3.sequencer.pio-slave-port            4                       # Cumulative packet size per connected master and slave (bytes)
system.iobus.pkt_size_system.ruby.l1_cntrl2.sequencer.mem-master-port::total         1268                       # Cumulative packet size per connected master and slave (bytes)
system.iobus.pkt_size_system.ruby.l1_cntrl3.sequencer.mem-master-port::system.pc.south_bridge.io_apic.pio           12                       # Cumulative packet size per connected master and slave (bytes)
system.iobus.pkt_size_system.ruby.l1_cntrl3.sequencer.mem-master-port::system.pc.com_1.pio          867                       # Cumulative packet size per connected master and slave (bytes)
system.iobus.pkt_size_system.ruby.l1_cntrl3.sequencer.mem-master-port::system.ruby.l1_cntrl0.sequencer.pio-slave-port            4                       # Cumulative packet size per connected master and slave (bytes)
system.iobus.pkt_size_system.ruby.l1_cntrl3.sequencer.mem-master-port::system.ruby.l1_cntrl3.sequencer.pio-slave-port         1220                       # Cumulative packet size per connected master and slave (bytes)
system.iobus.pkt_size_system.ruby.l1_cntrl3.sequencer.mem-master-port::total         2103                       # Cumulative packet size per connected master and slave (bytes)
system.iobus.pkt_size::total                     5968                       # Cumulative packet size per connected master and slave (bytes)
system.iobus.reqLayer8.occupancy                32496                       # Layer occupancy (ticks)
system.iobus.reqLayer8.utilization                0.0                       # Layer utilization (%)
system.iobus.reqLayer12.occupancy             1216000                       # Layer occupancy (ticks)
system.iobus.reqLayer12.utilization               0.0                       # Layer utilization (%)
system.iobus.reqLayer17.occupancy              830236                       # Layer occupancy (ticks)
system.iobus.reqLayer17.utilization               0.0                       # Layer utilization (%)
system.iobus.reqLayer18.occupancy              724000                       # Layer occupancy (ticks)
system.iobus.reqLayer18.utilization               0.0                       # Layer utilization (%)
system.iobus.reqLayer19.occupancy              730498                       # Layer occupancy (ticks)
system.iobus.reqLayer19.utilization               0.0                       # Layer utilization (%)
system.iobus.reqLayer20.occupancy              722499                       # Layer occupancy (ticks)
system.iobus.reqLayer20.utilization               0.0                       # Layer utilization (%)
system.iobus.respLayer0.occupancy                6000                       # Layer occupancy (ticks)
system.iobus.respLayer0.utilization               0.0                       # Layer utilization (%)
system.iobus.respLayer2.occupancy              590000                       # Layer occupancy (ticks)
system.iobus.respLayer2.utilization               0.0                       # Layer utilization (%)
system.iobus.respLayer4.occupancy              465500                       # Layer occupancy (ticks)
system.iobus.respLayer4.utilization               0.0                       # Layer utilization (%)
system.iobus.respLayer6.occupancy              477000                       # Layer occupancy (ticks)
system.iobus.respLayer6.utilization               0.0                       # Layer utilization (%)
system.iobus.respLayer8.occupancy             1980500                       # Layer occupancy (ticks)
system.iobus.respLayer8.utilization               0.0                       # Layer utilization (%)
system.pc.south_bridge.ide.disks.dma_read_full_pages            0                       # Number of full page size DMA reads (not PRD).
system.pc.south_bridge.ide.disks.dma_read_bytes            0                       # Number of bytes transfered via DMA reads (not PRD).
system.pc.south_bridge.ide.disks.dma_read_txs            0                       # Number of DMA read transactions (not PRD).
system.pc.south_bridge.ide.disks.dma_write_full_pages            0                       # Number of full page size DMA writes.
system.pc.south_bridge.ide.disks.dma_write_bytes            0                       # Number of bytes transfered via DMA writes.
system.pc.south_bridge.ide.disks.dma_write_txs            0                       # Number of DMA write transactions.
system.ruby.clk_domain.clock                      500                       # Clock period in ticks
system.ruby.delayHist::bucket_size                  4                       # delay histogram for all message
system.ruby.delayHist::max_bucket                  39                       # delay histogram for all message
system.ruby.delayHist::samples               50879370                       # delay histogram for all message
system.ruby.delayHist::mean                  0.966597                       # delay histogram for all message
system.ruby.delayHist::stdev                 2.607226                       # delay histogram for all message
system.ruby.delayHist                    |    44735577     87.92%     87.92% |        3893      0.01%     87.93% |     6138991     12.07%    100.00% |         230      0.00%    100.00% |         664      0.00%    100.00% |           1      0.00%    100.00% |          13      0.00%    100.00% |           1      0.00%    100.00% |           0      0.00%    100.00% |           0      0.00%    100.00% # delay histogram for all message
system.ruby.delayHist::total                 50879370                       # delay histogram for all message
system.ruby.outstanding_req_hist_seqr::bucket_size            1                      
system.ruby.outstanding_req_hist_seqr::max_bucket            9                      
system.ruby.outstanding_req_hist_seqr::samples    936501121                      
system.ruby.outstanding_req_hist_seqr::mean     1.000000                      
system.ruby.outstanding_req_hist_seqr::gmean     1.000000                      
system.ruby.outstanding_req_hist_seqr::stdev     0.000510                      
system.ruby.outstanding_req_hist_seqr    |           0      0.00%      0.00% |   936500877    100.00%    100.00% |         244      0.00%    100.00% |           0      0.00%    100.00% |           0      0.00%    100.00% |           0      0.00%    100.00% |           0      0.00%    100.00% |           0      0.00%    100.00% |           0      0.00%    100.00% |           0      0.00%    100.00%
system.ruby.outstanding_req_hist_seqr::total    936501121                      
system.ruby.latency_hist_seqr::bucket_size          256                      
system.ruby.latency_hist_seqr::max_bucket         2559                      
system.ruby.latency_hist_seqr::samples      936501121                      
system.ruby.latency_hist_seqr::mean          1.567222                      
system.ruby.latency_hist_seqr::gmean         1.035380                      
system.ruby.latency_hist_seqr::stdev        10.093181                      
system.ruby.latency_hist_seqr            |   936360185     99.98%     99.98% |       70084      0.01%     99.99% |       58359      0.01%    100.00% |        5798      0.00%    100.00% |        6008      0.00%    100.00% |         366      0.00%    100.00% |         280      0.00%    100.00% |          41      0.00%    100.00% |           0      0.00%    100.00% |           0      0.00%    100.00%
system.ruby.latency_hist_seqr::total        936501121                      
system.ruby.hit_latency_hist_seqr::bucket_size            1                      
system.ruby.hit_latency_hist_seqr::max_bucket            9                      
system.ruby.hit_latency_hist_seqr::samples    927303789                      
system.ruby.hit_latency_hist_seqr::mean             1                      
system.ruby.hit_latency_hist_seqr::gmean            1                      
system.ruby.hit_latency_hist_seqr        |           0      0.00%      0.00% |   927303789    100.00%    100.00% |           0      0.00%    100.00% |           0      0.00%    100.00% |           0      0.00%    100.00% |           0      0.00%    100.00% |           0      0.00%    100.00% |           0      0.00%    100.00% |           0      0.00%    100.00% |           0      0.00%    100.00%
system.ruby.hit_latency_hist_seqr::total    927303789                      
system.ruby.miss_latency_hist_seqr::bucket_size          256                      
system.ruby.miss_latency_hist_seqr::max_bucket         2559                      
system.ruby.miss_latency_hist_seqr::samples      9197332                      
system.ruby.miss_latency_hist_seqr::mean    58.756277                      
system.ruby.miss_latency_hist_seqr::gmean    34.475050                      
system.ruby.miss_latency_hist_seqr::stdev    84.082879                      
system.ruby.miss_latency_hist_seqr       |     9056396     98.47%     98.47% |       70084      0.76%     99.23% |       58359      0.63%     99.86% |        5798      0.06%     99.93% |        6008      0.07%     99.99% |         366      0.00%    100.00% |         280      0.00%    100.00% |          41      0.00%    100.00% |           0      0.00%    100.00% |           0      0.00%    100.00%
system.ruby.miss_latency_hist_seqr::total      9197332                      
system.ruby.l1_cntrl0.L1Dcache.demand_hits    156845534                       # Number of cache demand hits
system.ruby.l1_cntrl0.L1Dcache.demand_misses      9040231                       # Number of cache demand misses
system.ruby.l1_cntrl0.L1Dcache.demand_accesses    165885765                       # Number of cache demand accesses
system.ruby.l1_cntrl0.L1Icache.demand_hits    762227968                       # Number of cache demand hits
system.ruby.l1_cntrl0.L1Icache.demand_misses        27682                       # Number of cache demand misses
system.ruby.l1_cntrl0.L1Icache.demand_accesses    762255650                       # Number of cache demand accesses
system.ruby.l1_cntrl0.prefetcher.miss_observed            0                       # number of misses observed
system.ruby.l1_cntrl0.prefetcher.allocated_streams            0                       # number of streams allocated for prefetching
system.ruby.l1_cntrl0.prefetcher.prefetches_requested            0                       # number of prefetch requests made
system.ruby.l1_cntrl0.prefetcher.prefetches_accepted            0                       # number of prefetch requests accepted
[...]
system.ruby.Directory_Controller.M_DWR.Data           20      0.00%      0.00%
system.ruby.Directory_Controller.M_DWRI.Memory_Ack           20      0.00%      0.00%
system.ruby.DMA_Controller.ReadRequest   |           2    100.00%    100.00% |           0      0.00%    100.00%
system.ruby.DMA_Controller.ReadRequest::total            2                      
system.ruby.DMA_Controller.WriteRequest  |         128    100.00%    100.00% |           0      0.00%    100.00%
system.ruby.DMA_Controller.WriteRequest::total          128                      
system.ruby.DMA_Controller.Data          |           2    100.00%    100.00% |           0      0.00%    100.00%
system.ruby.DMA_Controller.Data::total              2                      
system.ruby.DMA_Controller.Ack           |         128    100.00%    100.00% |           0      0.00%    100.00%
system.ruby.DMA_Controller.Ack::total             128                      
system.ruby.DMA_Controller.READY.ReadRequest |           2    100.00%    100.00% |           0      0.00%    100.00%
system.ruby.DMA_Controller.READY.ReadRequest::total            2                      
system.ruby.DMA_Controller.READY.WriteRequest |         128    100.00%    100.00% |           0      0.00%    100.00%
system.ruby.DMA_Controller.READY.WriteRequest::total          128                      
system.ruby.DMA_Controller.BUSY_RD.Data  |           2    100.00%    100.00% |           0      0.00%    100.00%
system.ruby.DMA_Controller.BUSY_RD.Data::total            2                      
system.ruby.DMA_Controller.BUSY_WR.Ack   |         128    100.00%    100.00% |           0      0.00%    100.00%
system.ruby.DMA_Controller.BUSY_WR.Ack::total          128                      
system.ruby.L1Cache_Controller.Load      |   107920087     96.38%     96.38% |      383349      0.34%     96.72% |     2874572      2.57%     99.29% |      798769      0.71%    100.00%
system.ruby.L1Cache_Controller.Load::total    111976777                      
system.ruby.L1Cache_Controller.Ifetch    |   764089601     97.08%     97.08% |     1710281      0.22%     97.30% |    17301400      2.20%     99.50% |     3938974      0.50%    100.00%
system.ruby.L1Cache_Controller.Ifetch::total    787040256                      
system.ruby.L1Cache_Controller.Store     |    58606540     94.93%     94.93% |      283933      0.46%     95.39% |     2213507      3.59%     98.97% |      635054      1.03%    100.00%
system.ruby.L1Cache_Controller.Store::total     61739034                      
system.ruby.L1Cache_Controller.Inv       |       14727     22.47%     22.47% |       15126     23.08%     45.55% |       18974     28.95%     74.51% |       16708     25.49%    100.00%
system.ruby.L1Cache_Controller.Inv::total        65535                      
system.ruby.L1Cache_Controller.L1_Replacement |     9101253     97.24%     97.24% |       28831      0.31%     97.55% |      173111      1.85%     99.40% |       56442      0.60%    100.00%
system.ruby.L1Cache_Controller.L1_Replacement::total      9359637                      
system.ruby.L1Cache_Controller.Fwd_GETX  |         838     20.39%     20.39% |         691     16.81%     37.20% |        1412     34.36%     71.56% |        1169     28.44%    100.00%
system.ruby.L1Cache_Controller.Fwd_GETX::total         4110                      
system.ruby.L1Cache_Controller.Fwd_GETS  |        3063     21.96%     21.96% |        3156     22.63%     44.58% |        2976     21.33%     65.92% |        4754     34.08%    100.00%
system.ruby.L1Cache_Controller.Fwd_GETS::total        13949                      
system.ruby.L1Cache_Controller.Data      |        1272     47.89%     47.89% |         291     10.96%     58.85% |         741     27.90%     86.75% |         352     13.25%    100.00%
system.ruby.L1Cache_Controller.Data::total         2656                      
system.ruby.L1Cache_Controller.Data_Exclusive |     5682480     98.16%     98.16% |        7234      0.12%     98.29% |       83396      1.44%     99.73% |       15747      0.27%    100.00%
system.ruby.L1Cache_Controller.Data_Exclusive::total      5788857                      
system.ruby.L1Cache_Controller.DataS_fromL1 |        2047     14.67%     14.67% |        3098     22.21%     36.88% |        4542     32.56%     69.45% |        4262     30.55%    100.00%
system.ruby.L1Cache_Controller.DataS_fromL1::total        13949                      
system.ruby.L1Cache_Controller.Data_all_Acks |     3422836     95.24%     95.24% |       28285      0.79%     96.02% |       95242      2.65%     98.67% |       47723      1.33%    100.00%
system.ruby.L1Cache_Controller.Data_all_Acks::total      3594086                      
system.ruby.L1Cache_Controller.Ack       |        7095     41.80%     41.80% |        2707     15.95%     57.75% |        3966     23.37%     81.12% |        3204     18.88%    100.00%
system.ruby.L1Cache_Controller.Ack::total        16972                      
system.ruby.L1Cache_Controller.Ack_all   |        4161     34.72%     34.72% |        1954     16.30%     51.02% |        3354     27.98%     79.00% |        2517     21.00%    100.00%
system.ruby.L1Cache_Controller.Ack_all::total        11986                      
system.ruby.L1Cache_Controller.WB_Ack    |     9031287     98.41%     98.41% |        8218      0.09%     98.50% |      115283      1.26%     99.76% |       22150      0.24%    100.00%
system.ruby.L1Cache_Controller.WB_Ack::total      9176938                      
system.ruby.L1Cache_Controller.NP.Load   |     5713858     97.91%     97.91% |       10545      0.18%     98.09% |       91458      1.57%     99.66% |       20009      0.34%    100.00%
system.ruby.L1Cache_Controller.NP.Load::total      5835870                      
system.ruby.L1Cache_Controller.NP.Ifetch |       37294     30.21%     30.21% |       13924     11.28%     41.49% |       47040     38.11%     79.60% |       25175     20.40%    100.00%
system.ruby.L1Cache_Controller.NP.Ifetch::total       123433                      
system.ruby.L1Cache_Controller.NP.Store  |     3350101     98.50%     98.50% |        4536      0.13%     98.64% |       34614      1.02%     99.65% |       11780      0.35%    100.00%
system.ruby.L1Cache_Controller.NP.Store::total      3401031                      
system.ruby.L1Cache_Controller.NP.Inv    |        5547     38.78%     38.78% |        1901     13.29%     52.08% |        5118     35.79%     87.86% |        1736     12.14%    100.00%
system.ruby.L1Cache_Controller.NP.Inv::total        14302                      
system.ruby.L1Cache_Controller.I.Load    |         856      6.72%      6.72% |        3690     28.97%     35.69% |        4025     31.60%     67.30% |        4165     32.70%    100.00%
system.ruby.L1Cache_Controller.I.Load::total        12736                      
system.ruby.L1Cache_Controller.I.Ifetch  |        6119     30.07%     30.07% |        4581     22.51%     52.58% |        4670     22.95%     75.53% |        4980     24.47%    100.00%
system.ruby.L1Cache_Controller.I.Ifetch::total        20350                      
system.ruby.L1Cache_Controller.I.Store   |         404      6.60%      6.60% |        1631     26.64%     33.24% |        2114     34.53%     67.76% |        1974     32.24%    100.00%
system.ruby.L1Cache_Controller.I.Store::total         6123                      
system.ruby.L1Cache_Controller.I.L1_Replacement |        2831     18.12%     18.12% |        3907     25.01%     43.13% |        4073     26.07%     69.20% |        4812     30.80%    100.00%
system.ruby.L1Cache_Controller.I.L1_Replacement::total        15623                      
system.ruby.L1Cache_Controller.S.Load    |      253925     36.16%     36.16% |       71498     10.18%     46.35% |      261580     37.25%     83.60% |      115161     16.40%    100.00%
system.ruby.L1Cache_Controller.S.Load::total       702164                      
system.ruby.L1Cache_Controller.S.Ifetch  |   764046188     97.10%     97.10% |     1691776      0.21%     97.31% |    17249690      2.19%     99.50% |     3908819      0.50%    100.00%
system.ruby.L1Cache_Controller.S.Ifetch::total    786896473                      
system.ruby.L1Cache_Controller.S.Store   |        2892     30.98%     30.98% |        1664     17.83%     48.81% |        2613     27.99%     76.80% |        2166     23.20%    100.00%
system.ruby.L1Cache_Controller.S.Store::total         9335                      
system.ruby.L1Cache_Controller.S.Inv     |        8848     21.52%     21.52% |       10233     24.89%     46.42% |       10418     25.34%     71.76% |       11608     28.24%    100.00%
system.ruby.L1Cache_Controller.S.Inv::total        41107                      
system.ruby.L1Cache_Controller.S.L1_Replacement |       67135     40.18%     40.18% |       16706     10.00%     50.18% |       53755     32.17%     82.36% |       29480     17.64%    100.00%
system.ruby.L1Cache_Controller.S.L1_Replacement::total       167076                      
system.ruby.L1Cache_Controller.E.Load    |    46082647     98.65%     98.65% |       63277      0.14%     98.79% |      433516      0.93%     99.72% |      132503      0.28%    100.00%
system.ruby.L1Cache_Controller.E.Load::total     46711943                      
system.ruby.L1Cache_Controller.E.Store   |     2758225     97.90%     97.90% |        1146      0.04%     97.95% |       54003      1.92%     99.86% |        3875      0.14%    100.00%
system.ruby.L1Cache_Controller.E.Store::total      2817249                      
system.ruby.L1Cache_Controller.E.Inv     |         283      8.02%      8.02% |         944     26.76%     34.78% |        1127     31.94%     66.72% |        1174     33.28%    100.00%
system.ruby.L1Cache_Controller.E.Inv::total         3528                      
system.ruby.L1Cache_Controller.E.L1_Replacement |     2922817     98.73%     98.73% |        3310      0.11%     98.84% |       27013      0.91%     99.75% |        7420      0.25%    100.00%
system.ruby.L1Cache_Controller.E.L1_Replacement::total      2960560                      
system.ruby.L1Cache_Controller.E.Fwd_GETX |          95      9.55%      9.55% |          49      4.92%     14.47% |         474     47.64%     62.11% |         377     37.89%    100.00%
system.ruby.L1Cache_Controller.E.Fwd_GETX::total          995                      
system.ruby.L1Cache_Controller.E.Fwd_GETS |         610      9.77%      9.77% |        1680     26.91%     36.68% |        1148     18.39%     55.06% |        2806     44.94%    100.00%
system.ruby.L1Cache_Controller.E.Fwd_GETS::total         6244                      
system.ruby.L1Cache_Controller.M.Load    |    55868801     95.15%     95.15% |      234339      0.40%     95.55% |     2083993      3.55%     99.10% |      526931      0.90%    100.00%
system.ruby.L1Cache_Controller.M.Load::total     58714064                      
system.ruby.L1Cache_Controller.M.Store   |    52494918     94.58%     94.58% |      274956      0.50%     95.07% |     2120163      3.82%     98.89% |      615259      1.11%    100.00%
system.ruby.L1Cache_Controller.M.Store::total     55505296                      
system.ruby.L1Cache_Controller.M.Inv     |          46      0.70%      0.70% |        2047     31.05%     31.75% |        2311     35.05%     66.80% |        2189     33.20%    100.00%
system.ruby.L1Cache_Controller.M.Inv::total         6593                      
system.ruby.L1Cache_Controller.M.L1_Replacement |     6108470     98.26%     98.26% |        4908      0.08%     98.34% |       88270      1.42%     99.76% |       14730      0.24%    100.00%
system.ruby.L1Cache_Controller.M.L1_Replacement::total      6216378                      
system.ruby.L1Cache_Controller.M.Fwd_GETX |         743     23.85%     23.85% |         642     20.61%     44.46% |         938     30.11%     74.57% |         792     25.43%    100.00%
system.ruby.L1Cache_Controller.M.Fwd_GETX::total         3115                      
system.ruby.L1Cache_Controller.M.Fwd_GETS |        2453     31.84%     31.84% |        1476     19.16%     50.99% |        1828     23.72%     74.72% |        1948     25.28%    100.00%
system.ruby.L1Cache_Controller.M.Fwd_GETS::total         7705                      
system.ruby.L1Cache_Controller.IS.Data_Exclusive |     5682480     98.16%     98.16% |        7234      0.12%     98.29% |       83396      1.44%     99.73% |       15747      0.27%    100.00%
system.ruby.L1Cache_Controller.IS.Data_Exclusive::total      5788857                      
system.ruby.L1Cache_Controller.IS.DataS_fromL1 |        2047     14.67%     14.67% |        3098     22.21%     36.88% |        4542     32.56%     69.45% |        4262     30.55%    100.00%
system.ruby.L1Cache_Controller.IS.DataS_fromL1::total        13949                      
system.ruby.L1Cache_Controller.IS.Data_all_Acks |       73600     38.82%     38.82% |       22408     11.82%     50.64% |       59255     31.26%     81.90% |       34320     18.10%    100.00%
system.ruby.L1Cache_Controller.IS.Data_all_Acks::total       189583                      
system.ruby.L1Cache_Controller.IM.Data   |        1272     47.89%     47.89% |         291     10.96%     58.85% |         741     27.90%     86.75% |         352     13.25%    100.00%
system.ruby.L1Cache_Controller.IM.Data::total         2656                      
system.ruby.L1Cache_Controller.IM.Data_all_Acks |     3349236     98.38%     98.38% |        5877      0.17%     98.55% |       35987      1.06%     99.61% |       13403      0.39%    100.00%
system.ruby.L1Cache_Controller.IM.Data_all_Acks::total      3404503                      
system.ruby.L1Cache_Controller.SM.Inv    |           3     60.00%     60.00% |           1     20.00%     80.00% |           0      0.00%     80.00% |           1     20.00%    100.00%
system.ruby.L1Cache_Controller.SM.Inv::total            5                      
system.ruby.L1Cache_Controller.SM.Ack    |        7095     41.80%     41.80% |        2707     15.95%     57.75% |        3966     23.37%     81.12% |        3204     18.88%    100.00%
system.ruby.L1Cache_Controller.SM.Ack::total        16972                      
system.ruby.L1Cache_Controller.SM.Ack_all |        4161     34.72%     34.72% |        1954     16.30%     51.02% |        3354     27.98%     79.00% |        2517     21.00%    100.00%
system.ruby.L1Cache_Controller.SM.Ack_all::total        11986                      
system.ruby.L1Cache_Controller.M_I.WB_Ack |     9031287     98.41%     98.41% |        8218      0.09%     98.50% |      115283      1.26%     99.76% |       22150      0.24%    100.00%
system.ruby.L1Cache_Controller.M_I.WB_Ack::total      9176938                      
system.ruby.L2Cache_Controller.L1_GET_INSTR       143783      0.00%      0.00%
system.ruby.L2Cache_Controller.L1_GETS        5848980      0.00%      0.00%
system.ruby.L2Cache_Controller.L1_GETX        3407162      0.00%      0.00%
system.ruby.L2Cache_Controller.L1_UPGRADE         9335      0.00%      0.00%
system.ruby.L2Cache_Controller.L1_PUTX        9176938      0.00%      0.00%
system.ruby.L2Cache_Controller.L2_Replacement      1514810      0.00%      0.00%
system.ruby.L2Cache_Controller.L2_Replacement_clean      1077819      0.00%      0.00%
system.ruby.L2Cache_Controller.Mem_Data       2632809      0.00%      0.00%
system.ruby.L2Cache_Controller.Mem_Ack        2592651      0.00%      0.00%
system.ruby.L2Cache_Controller.WB_Data          14298      0.00%      0.00%
system.ruby.L2Cache_Controller.WB_Data_clean         6244      0.00%      0.00%
system.ruby.L2Cache_Controller.Ack              20028      0.00%      0.00%
system.ruby.L2Cache_Controller.Ack_all          19286      0.00%      0.00%
system.ruby.L2Cache_Controller.Unblock          13949      0.00%      0.00%
system.ruby.L2Cache_Controller.Exclusive_Unblock      9205346      0.00%      0.00%
system.ruby.L2Cache_Controller.MEM_Inv             44      0.00%      0.00%
system.ruby.L2Cache_Controller.NP.L1_GET_INSTR        17486      0.00%      0.00%
system.ruby.L2Cache_Controller.NP.L1_GETS      1608805      0.00%      0.00%
system.ruby.L2Cache_Controller.NP.L1_GETX      1006518      0.00%      0.00%
system.ruby.L2Cache_Controller.SS.L1_GET_INSTR       126283      0.00%      0.00%
system.ruby.L2Cache_Controller.SS.L1_GETS        45792      0.00%      0.00%
system.ruby.L2Cache_Controller.SS.L1_GETX         2656      0.00%      0.00%
system.ruby.L2Cache_Controller.SS.L1_UPGRADE         9330      0.00%      0.00%
system.ruby.L2Cache_Controller.SS.L2_Replacement          463      0.00%      0.00%
system.ruby.L2Cache_Controller.SS.L2_Replacement_clean        15295      0.00%      0.00%
system.ruby.L2Cache_Controller.M.L1_GET_INSTR           14      0.00%      0.00%
system.ruby.L2Cache_Controller.M.L1_GETS      4180056      0.00%      0.00%
system.ruby.L2Cache_Controller.M.L1_GETX      2393875      0.00%      0.00%
system.ruby.L2Cache_Controller.M.L2_Replacement      1513632      0.00%      0.00%
system.ruby.L2Cache_Controller.M.L2_Replacement_clean      1053120      0.00%      0.00%
system.ruby.L2Cache_Controller.M.MEM_Inv           20      0.00%      0.00%
system.ruby.L2Cache_Controller.MT.L1_GETS        13949      0.00%      0.00%
system.ruby.L2Cache_Controller.MT.L1_GETX         4110      0.00%      0.00%
system.ruby.L2Cache_Controller.MT.L1_PUTX      9176938      0.00%      0.00%
system.ruby.L2Cache_Controller.MT.L2_Replacement          715      0.00%      0.00%
system.ruby.L2Cache_Controller.MT.L2_Replacement_clean         9404      0.00%      0.00%
system.ruby.L2Cache_Controller.MT.MEM_Inv            2      0.00%      0.00%
system.ruby.L2Cache_Controller.M_I.L1_GETX            1      0.00%      0.00%
system.ruby.L2Cache_Controller.M_I.Mem_Ack      2592651      0.00%      0.00%
system.ruby.L2Cache_Controller.M_I.MEM_Inv           20      0.00%      0.00%
system.ruby.L2Cache_Controller.MT_I.WB_Data          553      0.00%      0.00%
system.ruby.L2Cache_Controller.MT_I.Ack_all          164      0.00%      0.00%
system.ruby.L2Cache_Controller.MT_I.MEM_Inv            2      0.00%      0.00%
system.ruby.L2Cache_Controller.MCT_I.WB_Data         6040      0.00%      0.00%
system.ruby.L2Cache_Controller.MCT_I.Ack_all         3364      0.00%      0.00%
system.ruby.L2Cache_Controller.I_I.Ack          19418      0.00%      0.00%
system.ruby.L2Cache_Controller.I_I.Ack_all        15295      0.00%      0.00%
system.ruby.L2Cache_Controller.S_I.Ack            610      0.00%      0.00%
system.ruby.L2Cache_Controller.S_I.Ack_all          463      0.00%      0.00%
system.ruby.L2Cache_Controller.ISS.L1_GETS            4      0.00%      0.00%
system.ruby.L2Cache_Controller.ISS.Mem_Data      1608801      0.00%      0.00%
system.ruby.L2Cache_Controller.IS.Mem_Data        17490      0.00%      0.00%
system.ruby.L2Cache_Controller.IM.Mem_Data      1006518      0.00%      0.00%
system.ruby.L2Cache_Controller.SS_MB.L1_GETS          104      0.00%      0.00%
system.ruby.L2Cache_Controller.SS_MB.L1_UPGRADE            5      0.00%      0.00%
system.ruby.L2Cache_Controller.SS_MB.Exclusive_Unblock        11986      0.00%      0.00%
system.ruby.L2Cache_Controller.MT_MB.L1_GETS          267      0.00%      0.00%
system.ruby.L2Cache_Controller.MT_MB.L1_GETX            2      0.00%      0.00%
system.ruby.L2Cache_Controller.MT_MB.Exclusive_Unblock      9193360      0.00%      0.00%
system.ruby.L2Cache_Controller.MT_IIB.L1_GETS            3      0.00%      0.00%
system.ruby.L2Cache_Controller.MT_IIB.WB_Data         7695      0.00%      0.00%
system.ruby.L2Cache_Controller.MT_IIB.WB_Data_clean         6232      0.00%      0.00%
system.ruby.L2Cache_Controller.MT_IIB.Unblock           22      0.00%      0.00%
system.ruby.L2Cache_Controller.MT_IB.WB_Data           10      0.00%      0.00%
system.ruby.L2Cache_Controller.MT_IB.WB_Data_clean           12      0.00%      0.00%
system.ruby.L2Cache_Controller.MT_SB.Unblock        13927      0.00%      0.00%

---------- End Simulation Statistics   ----------
