
---------- Begin Simulation Statistics ----------
sim_seconds                                  3.942171                       # Number of seconds simulated
sim_ticks                                3942171366500                       # Number of ticks simulated
final_tick                               56382947450001                       # Number of ticks from beginning of simulation (restored from checkpoints and never reset)
sim_freq                                 1000000000000                       # Frequency of simulated ticks
host_inst_rate                                 134265                       # Simulator instruction rate (inst/s)
host_op_rate                                   228690                       # Simulator op (including micro ops) rate (op/s)
host_tick_rate                              261797886                       # Simulator tick rate (ticks/s)
host_mem_usage                                1808628                       # Number of bytes of host memory used
host_seconds                                 15058.07                       # Real time elapsed on the host
sim_insts                                  2021767091                       # Number of instructions simulated
sim_ops                                    3443635975                       # Number of ops (including micro ops) simulated
system.voltage_domain.voltage                       1                       # Voltage in Volts
system.clk_domain.clock                          1000                       # Clock period in ticks
system.mem_ctrls.bytes_read::ruby.dir_cntrl0      1533312                       # Number of bytes read from this memory
system.mem_ctrls.bytes_read::total            1533312                       # Number of bytes read from this memory
system.mem_ctrls.bytes_written::ruby.dir_cntrl0       558848                       # Number of bytes written to this memory
system.mem_ctrls.bytes_written::total          558848                       # Number of bytes written to this memory
system.mem_ctrls.num_reads::ruby.dir_cntrl0        11979                       # Number of read requests responded to by this memory
system.mem_ctrls.num_reads::total               11979                       # Number of read requests responded to by this memory
system.mem_ctrls.num_writes::ruby.dir_cntrl0         4366                       # Number of write requests responded to by this memory
system.mem_ctrls.num_writes::total               4366                       # Number of write requests responded to by this memory
system.mem_ctrls.bw_read::ruby.dir_cntrl0       388951                       # Total read bandwidth from this memory (bytes/s)
system.mem_ctrls.bw_read::total                388951                       # Total read bandwidth from this memory (bytes/s)
system.mem_ctrls.bw_write::ruby.dir_cntrl0       141761                       # Write bandwidth from this memory (bytes/s)
system.mem_ctrls.bw_write::total               141761                       # Write bandwidth from this memory (bytes/s)
system.mem_ctrls.bw_total::ruby.dir_cntrl0       530713                       # Total bandwidth to/from this memory (bytes/s)
system.mem_ctrls.bw_total::total               530713                       # Total bandwidth to/from this memory (bytes/s)
system.mem_ctrls.readReqs                       11979                       # Number of read requests accepted
system.mem_ctrls.writeReqs                       4366                       # Number of write requests accepted
system.mem_ctrls.readBursts                     23958                       # Number of DRAM read bursts, including those serviced by the write queue
system.mem_ctrls.writeBursts                     8732                       # Number of DRAM write bursts, including those merged in the write queue
system.mem_ctrls.bytesReadDRAM                1530176                       # Total number of bytes read from DRAM
system.mem_ctrls.bytesReadWrQ                    3136                       # Total number of bytes read from write queue
system.mem_ctrls.bytesWritten                  559552                       # Total number of bytes written to DRAM
system.mem_ctrls.bytesReadSys                 1533312                       # Total read bytes from the system interface side
system.mem_ctrls.bytesWrittenSys               558848                       # Total written bytes from the system interface side
system.mem_ctrls.servicedByWrQ                     49                       # Number of DRAM read bursts serviced by the write queue
system.mem_ctrls.mergedWrBursts                     0                       # Number of DRAM write bursts merged with an existing one
system.mem_ctrls.neitherReadNorWriteReqs            0                       # Number of requests that are neither read nor write
system.mem_ctrls.perBankRdBursts::0              1918                       # Per bank write bursts
system.mem_ctrls.perBankRdBursts::1              1343                       # Per bank write bursts
system.mem_ctrls.perBankRdBursts::2              1216                       # Per bank write bursts
system.mem_ctrls.perBankRdBursts::3              1226                       # Per bank write bursts
system.mem_ctrls.perBankRdBursts::4              1401                       # Per bank write bursts
system.mem_ctrls.perBankRdBursts::5              1626                       # Per bank write bursts
system.mem_ctrls.perBankRdBursts::6              1785                       # Per bank write bursts
system.mem_ctrls.perBankRdBursts::7              2154                       # Per bank write bursts
system.mem_ctrls.perBankRdBursts::8              1266                       # Per bank write bursts
system.mem_ctrls.perBankRdBursts::9              1084                       # Per bank write bursts
system.mem_ctrls.perBankRdBursts::10             1480                       # Per bank write bursts
system.mem_ctrls.perBankRdBursts::11             1236                       # Per bank write bursts
system.mem_ctrls.perBankRdBursts::12             1268                       # Per bank write bursts
system.mem_ctrls.perBankRdBursts::13             1640                       # Per bank write bursts
system.mem_ctrls.perBankRdBursts::14             1778                       # Per bank write bursts
system.mem_ctrls.perBankRdBursts::15             1488                       # Per bank write bursts
system.mem_ctrls.perBankWrBursts::0               816                       # Per bank write bursts
system.mem_ctrls.perBankWrBursts::1               562                       # Per bank write bursts
system.mem_ctrls.perBankWrBursts::2               566                       # Per bank write bursts
system.mem_ctrls.perBankWrBursts::3               496                       # Per bank write bursts
system.mem_ctrls.perBankWrBursts::4               698                       # Per bank write bursts
system.mem_ctrls.perBankWrBursts::5               602                       # Per bank write bursts
system.mem_ctrls.perBankWrBursts::6               694                       # Per bank write bursts
system.mem_ctrls.perBankWrBursts::7               784                       # Per bank write bursts
system.mem_ctrls.perBankWrBursts::8               364                       # Per bank write bursts
system.mem_ctrls.perBankWrBursts::9               220                       # Per bank write bursts
system.mem_ctrls.perBankWrBursts::10              418                       # Per bank write bursts
system.mem_ctrls.perBankWrBursts::11              194                       # Per bank write bursts
system.mem_ctrls.perBankWrBursts::12              428                       # Per bank write bursts
system.mem_ctrls.perBankWrBursts::13              601                       # Per bank write bursts
system.mem_ctrls.perBankWrBursts::14              904                       # Per bank write bursts
system.mem_ctrls.perBankWrBursts::15              396                       # Per bank write bursts
system.mem_ctrls.numRdRetry                         0                       # Number of times read queue was full causing retry
system.mem_ctrls.numWrRetry                         0                       # Number of times write queue was full causing retry
system.mem_ctrls.totGap                  3942171333500                       # Total gap between requests
system.mem_ctrls.readPktSize::0                     0                       # Read request sizes (log2)
system.mem_ctrls.readPktSize::1                     0                       # Read request sizes (log2)
system.mem_ctrls.readPktSize::2                     0                       # Read request sizes (log2)
system.mem_ctrls.readPktSize::3                     0                       # Read request sizes (log2)
system.mem_ctrls.readPktSize::4                     0                       # Read request sizes (log2)
system.mem_ctrls.readPktSize::5                     0                       # Read request sizes (log2)
system.mem_ctrls.readPktSize::6                 23958                       # Read request sizes (log2)
system.mem_ctrls.writePktSize::0                    0                       # Write request sizes (log2)
system.mem_ctrls.writePktSize::1                    0                       # Write request sizes (log2)
system.mem_ctrls.writePktSize::2                    0                       # Write request sizes (log2)
system.mem_ctrls.writePktSize::3                    0                       # Write request sizes (log2)
system.mem_ctrls.writePktSize::4                    0                       # Write request sizes (log2)
system.mem_ctrls.writePktSize::5                    0                       # Write request sizes (log2)
system.mem_ctrls.writePktSize::6                 8732                       # Write request sizes (log2)
system.mem_ctrls.rdQLenPdf::0                   11846                       # What read queue length does an incoming req see
system.mem_ctrls.rdQLenPdf::1                   11865                       # What read queue length does an incoming req see
system.mem_ctrls.rdQLenPdf::2                     105                       # What read queue length does an incoming req see
system.mem_ctrls.rdQLenPdf::3                      83                       # What read queue length does an incoming req see
system.mem_ctrls.rdQLenPdf::4                       5                       # What read queue length does an incoming req see
system.mem_ctrls.rdQLenPdf::5                       5                       # What read queue length does an incoming req see
system.mem_ctrls.rdQLenPdf::6                       0                       # What read queue length does an incoming req see
system.mem_ctrls.rdQLenPdf::7                       0                       # What read queue length does an incoming req see
system.mem_ctrls.rdQLenPdf::8                       0                       # What read queue length does an incoming req see
system.mem_ctrls.rdQLenPdf::9                       0                       # What read queue length does an incoming req see
system.mem_ctrls.rdQLenPdf::10                      0                       # What read queue length does an incoming req see
system.mem_ctrls.rdQLenPdf::11                      0                       # What read queue length does an incoming req see
system.mem_ctrls.rdQLenPdf::12                      0                       # What read queue length does an incoming req see
system.mem_ctrls.rdQLenPdf::13                      0                       # What read queue length does an incoming req see
system.mem_ctrls.rdQLenPdf::14                      0                       # What read queue length does an incoming req see
system.mem_ctrls.rdQLenPdf::15                      0                       # What read queue length does an incoming req see
system.mem_ctrls.rdQLenPdf::16                      0                       # What read queue length does an incoming req see
system.mem_ctrls.rdQLenPdf::17                      0                       # What read queue length does an incoming req see
system.mem_ctrls.rdQLenPdf::18                      0                       # What read queue length does an incoming req see
system.mem_ctrls.rdQLenPdf::19                      0                       # What read queue length does an incoming req see
system.mem_ctrls.rdQLenPdf::20                      0                       # What read queue length does an incoming req see
system.mem_ctrls.rdQLenPdf::21                      0                       # What read queue length does an incoming req see
system.mem_ctrls.rdQLenPdf::22                      0                       # What read queue length does an incoming req see
system.mem_ctrls.rdQLenPdf::23                      0                       # What read queue length does an incoming req see
system.mem_ctrls.rdQLenPdf::24                      0                       # What read queue length does an incoming req see
system.mem_ctrls.rdQLenPdf::25                      0                       # What read queue length does an incoming req see
system.mem_ctrls.rdQLenPdf::26                      0                       # What read queue length does an incoming req see
system.mem_ctrls.rdQLenPdf::27                      0                       # What read queue length does an incoming req see
system.mem_ctrls.rdQLenPdf::28                      0                       # What read queue length does an incoming req see
system.mem_ctrls.rdQLenPdf::29                      0                       # What read queue length does an incoming req see
system.mem_ctrls.rdQLenPdf::30                      0                       # What read queue length does an incoming req see
system.mem_ctrls.rdQLenPdf::31                      0                       # What read queue length does an incoming req see
system.mem_ctrls.wrQLenPdf::0                       0                       # What write queue length does an incoming req see
system.mem_ctrls.wrQLenPdf::1                       0                       # What write queue length does an incoming req see
system.mem_ctrls.wrQLenPdf::2                       0                       # What write queue length does an incoming req see
system.mem_ctrls.wrQLenPdf::3                       0                       # What write queue length does an incoming req see
system.mem_ctrls.wrQLenPdf::4                       0                       # What write queue length does an incoming req see
system.mem_ctrls.wrQLenPdf::5                       0                       # What write queue length does an incoming req see
system.mem_ctrls.wrQLenPdf::6                       0                       # What write queue length does an incoming req see
system.mem_ctrls.wrQLenPdf::7                       0                       # What write queue length does an incoming req see
system.mem_ctrls.wrQLenPdf::8                       0                       # What write queue length does an incoming req see
system.mem_ctrls.wrQLenPdf::9                       0                       # What write queue length does an incoming req see
system.mem_ctrls.wrQLenPdf::10                      0                       # What write queue length does an incoming req see
system.mem_ctrls.wrQLenPdf::11                      0                       # What write queue length does an incoming req see
system.mem_ctrls.wrQLenPdf::12                      0                       # What write queue length does an incoming req see
system.mem_ctrls.wrQLenPdf::13                      0                       # What write queue length does an incoming req see
system.mem_ctrls.wrQLenPdf::14                      0                       # What write queue length does an incoming req see
system.mem_ctrls.wrQLenPdf::15                     75                       # What write queue length does an incoming req see
system.mem_ctrls.wrQLenPdf::16                    111                       # What write queue length does an incoming req see
system.mem_ctrls.wrQLenPdf::17                    472                       # What write queue length does an incoming req see
system.mem_ctrls.wrQLenPdf::18                    479                       # What write queue length does an incoming req see
system.mem_ctrls.wrQLenPdf::19                    518                       # What write queue length does an incoming req see
system.mem_ctrls.wrQLenPdf::20                    509                       # What write queue length does an incoming req see
system.mem_ctrls.wrQLenPdf::21                    544                       # What write queue length does an incoming req see
system.mem_ctrls.wrQLenPdf::22                    560                       # What write queue length does an incoming req see
system.mem_ctrls.wrQLenPdf::23                    568                       # What write queue length does an incoming req see
system.mem_ctrls.wrQLenPdf::24                    566                       # What write queue length does an incoming req see
system.mem_ctrls.wrQLenPdf::25                    555                       # What write queue length does an incoming req see
system.mem_ctrls.wrQLenPdf::26                    562                       # What write queue length does an incoming req see
system.mem_ctrls.wrQLenPdf::27                    566                       # What write queue length does an incoming req see
system.mem_ctrls.wrQLenPdf::28                    555                       # What write queue length does an incoming req see
system.mem_ctrls.wrQLenPdf::29                    516                       # What write queue length does an incoming req see
system.mem_ctrls.wrQLenPdf::30                    521                       # What write queue length does an incoming req see
system.mem_ctrls.wrQLenPdf::31                    499                       # What write queue length does an incoming req see
system.mem_ctrls.wrQLenPdf::32                    492                       # What write queue length does an incoming req see
system.mem_ctrls.wrQLenPdf::33                     43                       # What write queue length does an incoming req see
system.mem_ctrls.wrQLenPdf::34                      2                       # What write queue length does an incoming req see
system.mem_ctrls.wrQLenPdf::35                      2                       # What write queue length does an incoming req see
system.mem_ctrls.wrQLenPdf::36                      2                       # What write queue length does an incoming req see
system.mem_ctrls.wrQLenPdf::37                      2                       # What write queue length does an incoming req see
system.mem_ctrls.wrQLenPdf::38                      1                       # What write queue length does an incoming req see
system.mem_ctrls.wrQLenPdf::39                      1                       # What write queue length does an incoming req see
system.mem_ctrls.wrQLenPdf::40                      2                       # What write queue length does an incoming req see
system.mem_ctrls.wrQLenPdf::41                      2                       # What write queue length does an incoming req see
system.mem_ctrls.wrQLenPdf::42                      2                       # What write queue length does an incoming req see
system.mem_ctrls.wrQLenPdf::43                      2                       # What write queue length does an incoming req see
system.mem_ctrls.wrQLenPdf::44                      1                       # What write queue length does an incoming req see
system.mem_ctrls.wrQLenPdf::45                      1                       # What write queue length does an incoming req see
system.mem_ctrls.wrQLenPdf::46                      1                       # What write queue length does an incoming req see
system.mem_ctrls.wrQLenPdf::47                      0                       # What write queue length does an incoming req see
system.mem_ctrls.wrQLenPdf::48                      0                       # What write queue length does an incoming req see
system.mem_ctrls.wrQLenPdf::49                      0                       # What write queue length does an incoming req see
system.mem_ctrls.wrQLenPdf::50                      0                       # What write queue length does an incoming req see
system.mem_ctrls.wrQLenPdf::51                      0                       # What write queue length does an incoming req see
system.mem_ctrls.wrQLenPdf::52                      0                       # What write queue length does an incoming req see
system.mem_ctrls.wrQLenPdf::53                      0                       # What write queue length does an incoming req see
system.mem_ctrls.wrQLenPdf::54                      0                       # What write queue length does an incoming req see
system.mem_ctrls.wrQLenPdf::55                      0                       # What write queue length does an incoming req see
system.mem_ctrls.wrQLenPdf::56                      0                       # What write queue length does an incoming req see
system.mem_ctrls.wrQLenPdf::57                      0                       # What write queue length does an incoming req see
system.mem_ctrls.wrQLenPdf::58                      0                       # What write queue length does an incoming req see
system.mem_ctrls.wrQLenPdf::59                      0                       # What write queue length does an incoming req see
system.mem_ctrls.wrQLenPdf::60                      0                       # What write queue length does an incoming req see
system.mem_ctrls.wrQLenPdf::61                      0                       # What write queue length does an incoming req see
system.mem_ctrls.wrQLenPdf::62                      0                       # What write queue length does an incoming req see
system.mem_ctrls.wrQLenPdf::63                      0                       # What write queue length does an incoming req see
system.mem_ctrls.bytesPerActivate::samples         6979                       # Bytes accessed per row activation
system.mem_ctrls.bytesPerActivate::mean    299.430864                       # Bytes accessed per row activation
system.mem_ctrls.bytesPerActivate::gmean   209.199736                       # Bytes accessed per row activation
system.mem_ctrls.bytesPerActivate::stdev   298.539660                       # Bytes accessed per row activation
system.mem_ctrls.bytesPerActivate::0-127          340      4.87%      4.87% # Bytes accessed per row activation
system.mem_ctrls.bytesPerActivate::128-255         3918     56.14%     61.01% # Bytes accessed per row activation
system.mem_ctrls.bytesPerActivate::256-383         1013     14.51%     75.53% # Bytes accessed per row activation
system.mem_ctrls.bytesPerActivate::384-511          393      5.63%     81.16% # Bytes accessed per row activation
system.mem_ctrls.bytesPerActivate::512-639          227      3.25%     84.41% # Bytes accessed per row activation
system.mem_ctrls.bytesPerActivate::640-767          136      1.95%     86.36% # Bytes accessed per row activation
system.mem_ctrls.bytesPerActivate::768-895           96      1.38%     87.73% # Bytes accessed per row activation
system.mem_ctrls.bytesPerActivate::896-1023           86      1.23%     88.97% # Bytes accessed per row activation
system.mem_ctrls.bytesPerActivate::1024-1151          770     11.03%    100.00% # Bytes accessed per row activation
system.mem_ctrls.bytesPerActivate::total         6979                       # Bytes accessed per row activation
system.mem_ctrls.rdPerTurnAround::samples          461                       # Reads before turning the bus around for writes
system.mem_ctrls.rdPerTurnAround::mean      52.622560                       # Reads before turning the bus around for writes
system.mem_ctrls.rdPerTurnAround::stdev     70.215821                       # Reads before turning the bus around for writes
system.mem_ctrls.rdPerTurnAround::0-31            222     48.16%     48.16% # Reads before turning the bus around for writes
system.mem_ctrls.rdPerTurnAround::32-63           127     27.55%     75.70% # Reads before turning the bus around for writes
system.mem_ctrls.rdPerTurnAround::64-95            54     11.71%     87.42% # Reads before turning the bus around for writes
system.mem_ctrls.rdPerTurnAround::96-127           22      4.77%     92.19% # Reads before turning the bus around for writes
system.mem_ctrls.rdPerTurnAround::128-159           14      3.04%     95.23% # Reads before turning the bus around for writes
system.mem_ctrls.rdPerTurnAround::160-191            1      0.22%     95.44% # Reads before turning the bus around for writes
system.mem_ctrls.rdPerTurnAround::192-223            1      0.22%     95.66% # Reads before turning the bus around for writes
system.mem_ctrls.rdPerTurnAround::224-255            2      0.43%     96.10% # Reads before turning the bus around for writes
system.mem_ctrls.rdPerTurnAround::256-287            5      1.08%     97.18% # Reads before turning the bus around for writes
system.mem_ctrls.rdPerTurnAround::288-319            4      0.87%     98.05% # Reads before turning the bus around for writes
system.mem_ctrls.rdPerTurnAround::320-351            2      0.43%     98.48% # Reads before turning the bus around for writes
system.mem_ctrls.rdPerTurnAround::352-383            1      0.22%     98.70% # Reads before turning the bus around for writes
system.mem_ctrls.rdPerTurnAround::384-415            4      0.87%     99.57% # Reads before turning the bus around for writes
system.mem_ctrls.rdPerTurnAround::416-447            1      0.22%     99.78% # Reads before turning the bus around for writes
system.mem_ctrls.rdPerTurnAround::512-543            1      0.22%    100.00% # Reads before turning the bus around for writes
system.mem_ctrls.rdPerTurnAround::total           461                       # Reads before turning the bus around for writes
system.mem_ctrls.wrPerTurnAround::samples          461                       # Writes before turning the bus around for reads
system.mem_ctrls.wrPerTurnAround::mean      18.965293                       # Writes before turning the bus around for reads
system.mem_ctrls.wrPerTurnAround::gmean     17.882762                       # Writes before turning the bus around for reads
system.mem_ctrls.wrPerTurnAround::stdev      9.062278                       # Writes before turning the bus around for reads
system.mem_ctrls.wrPerTurnAround::16-17           368     79.83%     79.83% # Writes before turning the bus around for reads
system.mem_ctrls.wrPerTurnAround::18-19            28      6.07%     85.90% # Writes before turning the bus around for reads
system.mem_ctrls.wrPerTurnAround::20-21             3      0.65%     86.55% # Writes before turning the bus around for reads
system.mem_ctrls.wrPerTurnAround::22-23             6      1.30%     87.85% # Writes before turning the bus around for reads
system.mem_ctrls.wrPerTurnAround::24-25             3      0.65%     88.50% # Writes before turning the bus around for reads
system.mem_ctrls.wrPerTurnAround::26-27            20      4.34%     92.84% # Writes before turning the bus around for reads
system.mem_ctrls.wrPerTurnAround::28-29             3      0.65%     93.49% # Writes before turning the bus around for reads
system.mem_ctrls.wrPerTurnAround::30-31             5      1.08%     94.58% # Writes before turning the bus around for reads
system.mem_ctrls.wrPerTurnAround::32-33             2      0.43%     95.01% # Writes before turning the bus around for reads
system.mem_ctrls.wrPerTurnAround::36-37             2      0.43%     95.44% # Writes before turning the bus around for reads
system.mem_ctrls.wrPerTurnAround::38-39             2      0.43%     95.88% # Writes before turning the bus around for reads
system.mem_ctrls.wrPerTurnAround::46-47             4      0.87%     96.75% # Writes before turning the bus around for reads
system.mem_ctrls.wrPerTurnAround::48-49             1      0.22%     96.96% # Writes before turning the bus around for reads
system.mem_ctrls.wrPerTurnAround::52-53             1      0.22%     97.18% # Writes before turning the bus around for reads
system.mem_ctrls.wrPerTurnAround::56-57             2      0.43%     97.61% # Writes before turning the bus around for reads
system.mem_ctrls.wrPerTurnAround::60-61             4      0.87%     98.48% # Writes before turning the bus around for reads
system.mem_ctrls.wrPerTurnAround::66-67             5      1.08%     99.57% # Writes before turning the bus around for reads
system.mem_ctrls.wrPerTurnAround::68-69             2      0.43%    100.00% # Writes before turning the bus around for reads
system.mem_ctrls.wrPerTurnAround::total           461                       # Writes before turning the bus around for reads
system.mem_ctrls.totQLat                    423024496                       # Total ticks spent queuing
system.mem_ctrls.totMemAccLat               871318246                       # Total ticks spent from burst creation until serviced by the DRAM
system.mem_ctrls.totBusLat                  119545000                       # Total ticks spent in databus transfers
system.mem_ctrls.avgQLat                     17693.11                       # Average queueing delay per DRAM burst
system.mem_ctrls.avgBusLat                    5000.00                       # Average bus latency per DRAM burst
system.mem_ctrls.avgMemAccLat                36443.11                       # Average memory access latency per DRAM burst
system.mem_ctrls.avgRdBW                         0.39                       # Average DRAM read bandwidth in MiByte/s
system.mem_ctrls.avgWrBW                         0.14                       # Average achieved write bandwidth in MiByte/s
system.mem_ctrls.avgRdBWSys                      0.39                       # Average system read bandwidth in MiByte/s
system.mem_ctrls.avgWrBWSys                      0.14                       # Average system write bandwidth in MiByte/s
system.mem_ctrls.peakBW                      12800.00                       # Theoretical peak bandwidth in MiByte/s
system.mem_ctrls.busUtil                         0.00                       # Data bus utilization in percentage
system.mem_ctrls.busUtilRead                     0.00                       # Data bus utilization in percentage for reads
system.mem_ctrls.busUtilWrite                    0.00                       # Data bus utilization in percentage for writes
system.mem_ctrls.avgRdQLen                       2.00                       # Average read queue length when enqueuing
system.mem_ctrls.avgWrQLen                      24.25                       # Average write queue length when enqueuing
system.mem_ctrls.readRowHits                    19212                       # Number of row buffer hits during reads
system.mem_ctrls.writeRowHits                    6461                       # Number of row buffer hits during writes
system.mem_ctrls.readRowHitRate                 80.35                       # Row buffer hit rate for reads
system.mem_ctrls.writeRowHitRate                73.99                       # Row buffer hit rate for writes
system.mem_ctrls.avgGap                  241185153.47                       # Average gap between requests
system.mem_ctrls.pageHitRate                    78.65                       # Row buffer hit rate, read and write combined
system.mem_ctrls_0.actEnergy                 40317480                       # Energy for activate commands per rank (pJ)
system.mem_ctrls_0.preEnergy                 21998625                       # Energy for precharge commands per rank (pJ)
system.mem_ctrls_0.readEnergy               163698600                       # Energy for read commands per rank (pJ)
system.mem_ctrls_0.writeEnergy               33812640                       # Energy for write commands per rank (pJ)
system.mem_ctrls_0.refreshEnergy         257708202960                       # Energy for refresh commands per rank (pJ)
system.mem_ctrls_0.actBackEnergy          88920363375                       # Energy for active background per rank (pJ)
system.mem_ctrls_0.preBackEnergy         2289367104000                       # Energy for precharge background per rank (pJ)
system.mem_ctrls_0.totalEnergy           2636255497680                       # Total energy per rank (pJ)
system.mem_ctrls_0.averagePower            668.148629                       # Core power per rank (mW)
system.mem_ctrls_0.memoryStateTime::IDLE 3807101475500                       # Time in different power states
system.mem_ctrls_0.memoryStateTime::REF  131637740000                       # Time in different power states
system.mem_ctrls_0.memoryStateTime::PRE_PDN            0                       # Time in different power states
system.mem_ctrls_0.memoryStateTime::ACT    3433360000                       # Time in different power states
system.mem_ctrls_0.memoryStateTime::ACT_PDN            0                       # Time in different power states
system.mem_ctrls_1.actEnergy                 37747080                       # Energy for activate commands per rank (pJ)
system.mem_ctrls_1.preEnergy                 20596125                       # Energy for precharge commands per rank (pJ)
system.mem_ctrls_1.readEnergy               161179200                       # Energy for read commands per rank (pJ)
system.mem_ctrls_1.writeEnergy               22945680                       # Energy for write commands per rank (pJ)
system.mem_ctrls_1.refreshEnergy         257708202960                       # Energy for refresh commands per rank (pJ)
system.mem_ctrls_1.actBackEnergy          88912520460                       # Energy for active background per rank (pJ)
system.mem_ctrls_1.preBackEnergy         2289373983750                       # Energy for precharge background per rank (pJ)
system.mem_ctrls_1.totalEnergy           2636237175255                       # Total energy per rank (pJ)
system.mem_ctrls_1.averagePower            668.143986                       # Core power per rank (mW)
system.mem_ctrls_1.memoryStateTime::IDLE 3807074471500                       # Time in different power states
system.mem_ctrls_1.memoryStateTime::REF  131637740000                       # Time in different power states
system.mem_ctrls_1.memoryStateTime::PRE_PDN            0                       # Time in different power states
system.mem_ctrls_1.memoryStateTime::ACT    3458377250                       # Time in different power states
system.mem_ctrls_1.memoryStateTime::ACT_PDN            0                       # Time in different power states
system.cpu_voltage_domain.voltage                   1                       # Voltage in Volts
system.cpu_clk_domain.clock                       500                       # Clock period in ticks
system.cpu0.apic_clk_domain.clock                8000                       # Clock period in ticks
system.cpu0.numCycles                      7885590566                       # number of cpu cycles simulated
system.cpu0.numWorkItemsStarted                     0                       # number of work items this cpu started
system.cpu0.numWorkItemsCompleted                   0                       # number of work items this cpu completed
system.cpu0.kern.inst.arm                           0                       # number of arm instructions executed
system.cpu0.kern.inst.quiesce                       0                       # number of quiesce instructions executed
system.cpu0.committedInsts                 1994585405                       # Number of instructions committed
system.cpu0.committedOps                   3393235480                       # Number of ops (including micro ops) committed
system.cpu0.num_int_alu_accesses           2757875879                       # Number of integer alu accesses
system.cpu0.num_fp_alu_accesses            1010088632                       # Number of float alu accesses
system.cpu0.num_func_calls                   49957618                       # number of times a function call or return occured
system.cpu0.num_conditional_control_insts    199829331                       # number of instructions that are conditional controls
system.cpu0.num_int_insts                  2757875879                       # number of integer instructions
system.cpu0.num_fp_insts                   1010088632                       # number of float instructions
system.cpu0.num_int_register_reads         5218964877                       # number of times the integer registers were read
system.cpu0.num_int_register_writes        2052859431                       # number of times the integer registers were written
system.cpu0.num_fp_register_reads          1701898935                       # number of times the floating registers were read
system.cpu0.num_fp_register_writes          899765754                       # number of times the floating registers were written
system.cpu0.num_cc_register_reads          1288774534                       # number of times the CC registers were read
system.cpu0.num_cc_register_writes         1039464849                       # number of times the CC registers were written
system.cpu0.num_mem_refs                    738324639                       # number of memory refs
system.cpu0.num_load_insts                  571858874                       # Number of load instructions
system.cpu0.num_store_insts                 166465765                       # Number of store instructions
system.cpu0.num_idle_cycles              69229076.959673                       # Number of idle cycles
system.cpu0.num_busy_cycles              7816361489.040327                       # Number of busy cycles
system.cpu0.not_idle_fraction                0.991221                       # Percentage of non-idle cycles
system.cpu0.idle_fraction                    0.008779                       # Percentage of idle cycles
system.cpu0.Branches                        261202120                       # Number of branches fetched
system.cpu0.op_class::No_OpClass              1514340      0.04%      0.04% # Class of executed instruction
system.cpu0.op_class::IntAlu               2189522297     64.53%     64.57% # Class of executed instruction
system.cpu0.op_class::IntMult                24044536      0.71%     65.28% # Class of executed instruction
system.cpu0.op_class::IntDiv                   210368      0.01%     65.29% # Class of executed instruction
system.cpu0.op_class::FloatAdd              439619455     12.96%     78.24% # Class of executed instruction
system.cpu0.op_class::FloatCmp                      0      0.00%     78.24% # Class of executed instruction
system.cpu0.op_class::FloatCvt                      0      0.00%     78.24% # Class of executed instruction
system.cpu0.op_class::FloatMult                     0      0.00%     78.24% # Class of executed instruction
system.cpu0.op_class::FloatDiv                      0      0.00%     78.24% # Class of executed instruction
system.cpu0.op_class::FloatSqrt                     0      0.00%     78.24% # Class of executed instruction
system.cpu0.op_class::SimdAdd                       0      0.00%     78.24% # Class of executed instruction
system.cpu0.op_class::SimdAddAcc                    0      0.00%     78.24% # Class of executed instruction
system.cpu0.op_class::SimdAlu                       0      0.00%     78.24% # Class of executed instruction
system.cpu0.op_class::SimdCmp                       0      0.00%     78.24% # Class of executed instruction
system.cpu0.op_class::SimdCvt                       0      0.00%     78.24% # Class of executed instruction
system.cpu0.op_class::SimdMisc                      0      0.00%     78.24% # Class of executed instruction
system.cpu0.op_class::SimdMult                      0      0.00%     78.24% # Class of executed instruction
system.cpu0.op_class::SimdMultAcc                   0      0.00%     78.24% # Class of executed instruction
system.cpu0.op_class::SimdShift                     0      0.00%     78.24% # Class of executed instruction
system.cpu0.op_class::SimdShiftAcc                  0      0.00%     78.24% # Class of executed instruction
system.cpu0.op_class::SimdSqrt                      0      0.00%     78.24% # Class of executed instruction
system.cpu0.op_class::SimdFloatAdd                  0      0.00%     78.24% # Class of executed instruction
system.cpu0.op_class::SimdFloatAlu                  0      0.00%     78.24% # Class of executed instruction
system.cpu0.op_class::SimdFloatCmp                  0      0.00%     78.24% # Class of executed instruction
system.cpu0.op_class::SimdFloatCvt                  0      0.00%     78.24% # Class of executed instruction
system.cpu0.op_class::SimdFloatDiv                  0      0.00%     78.24% # Class of executed instruction
system.cpu0.op_class::SimdFloatMisc                 0      0.00%     78.24% # Class of executed instruction
system.cpu0.op_class::SimdFloatMult                 0      0.00%     78.24% # Class of executed instruction
system.cpu0.op_class::SimdFloatMultAcc              0      0.00%     78.24% # Class of executed instruction
system.cpu0.op_class::SimdFloatSqrt                 0      0.00%     78.24% # Class of executed instruction
system.cpu0.op_class::MemRead               571858874     16.85%     95.09% # Class of executed instruction
system.cpu0.op_class::MemWrite              166465765      4.91%    100.00% # Class of executed instruction
system.cpu0.op_class::IprAccess                     0      0.00%    100.00% # Class of executed instruction
system.cpu0.op_class::InstPrefetch                  0      0.00%    100.00% # Class of executed instruction
system.cpu0.op_class::total                3393235635                       # Class of executed instruction
system.cpu1.apic_clk_domain.clock                8000                       # Clock period in ticks
system.cpu1.numCycles                      7885736934                       # number of cpu cycles simulated
system.cpu1.numWorkItemsStarted                     0                       # number of work items this cpu started
system.cpu1.numWorkItemsCompleted                   0                       # number of work items this cpu completed
system.cpu1.kern.inst.arm                           0                       # number of arm instructions executed
system.cpu1.kern.inst.quiesce                       0                       # number of quiesce instructions executed
system.cpu1.committedInsts                    2950419                       # Number of instructions committed
system.cpu1.committedOps                      6325911                       # Number of ops (including micro ops) committed
system.cpu1.num_int_alu_accesses              6189648                       # Number of integer alu accesses
system.cpu1.num_fp_alu_accesses                    65                       # Number of float alu accesses
system.cpu1.num_func_calls                     172247                       # number of times a function call or return occured
system.cpu1.num_conditional_control_insts       454042                       # number of instructions that are conditional controls
system.cpu1.num_int_insts                     6189648                       # number of integer instructions
system.cpu1.num_fp_insts                           65                       # number of float instructions
system.cpu1.num_int_register_reads           12545365                       # number of times the integer registers were read
system.cpu1.num_int_register_writes           5132010                       # number of times the integer registers were written
system.cpu1.num_fp_register_reads                  82                       # number of times the floating registers were read
system.cpu1.num_fp_register_writes                 44                       # number of times the floating registers were written
system.cpu1.num_cc_register_reads             3606387                       # number of times the CC registers were read
system.cpu1.num_cc_register_writes            1894100                       # number of times the CC registers were written
system.cpu1.num_mem_refs                      1492247                       # number of memory refs
system.cpu1.num_load_insts                     927792                       # Number of load instructions
system.cpu1.num_store_insts                    564455                       # Number of store instructions
system.cpu1.num_idle_cycles              7871714895.898849                       # Number of idle cycles
system.cpu1.num_busy_cycles              14022038.101152                       # Number of busy cycles
system.cpu1.not_idle_fraction                0.001778                       # Percentage of non-idle cycles
system.cpu1.idle_fraction                    0.998222                       # Percentage of idle cycles
system.cpu1.Branches                           682259                       # Number of branches fetched
system.cpu1.op_class::No_OpClass               115328      1.82%      1.82% # Class of executed instruction
system.cpu1.op_class::IntAlu                  4664119     73.73%     75.55% # Class of executed instruction
system.cpu1.op_class::IntMult                   12640      0.20%     75.75% # Class of executed instruction
system.cpu1.op_class::IntDiv                    41575      0.66%     76.41% # Class of executed instruction
system.cpu1.op_class::FloatAdd                     22      0.00%     76.41% # Class of executed instruction
system.cpu1.op_class::FloatCmp                      0      0.00%     76.41% # Class of executed instruction
system.cpu1.op_class::FloatCvt                      0      0.00%     76.41% # Class of executed instruction
system.cpu1.op_class::FloatMult                     0      0.00%     76.41% # Class of executed instruction
system.cpu1.op_class::FloatDiv                      0      0.00%     76.41% # Class of executed instruction
system.cpu1.op_class::FloatSqrt                     0      0.00%     76.41% # Class of executed instruction
system.cpu1.op_class::SimdAdd                       0      0.00%     76.41% # Class of executed instruction
system.cpu1.op_class::SimdAddAcc                    0      0.00%     76.41% # Class of executed instruction
system.cpu1.op_class::SimdAlu                       0      0.00%     76.41% # Class of executed instruction
system.cpu1.op_class::SimdCmp                       0      0.00%     76.41% # Class of executed instruction
system.cpu1.op_class::SimdCvt                       0      0.00%     76.41% # Class of executed instruction
system.cpu1.op_class::SimdMisc                      0      0.00%     76.41% # Class of executed instruction
system.cpu1.op_class::SimdMult                      0      0.00%     76.41% # Class of executed instruction
system.cpu1.op_class::SimdMultAcc                   0      0.00%     76.41% # Class of executed instruction
system.cpu1.op_class::SimdShift                     0      0.00%     76.41% # Class of executed instruction
system.cpu1.op_class::SimdShiftAcc                  0      0.00%     76.41% # Class of executed instruction
system.cpu1.op_class::SimdSqrt                      0      0.00%     76.41% # Class of executed instruction
system.cpu1.op_class::SimdFloatAdd                  0      0.00%     76.41% # Class of executed instruction
system.cpu1.op_class::SimdFloatAlu                  0      0.00%     76.41% # Class of executed instruction
system.cpu1.op_class::SimdFloatCmp                  0      0.00%     76.41% # Class of executed instruction
system.cpu1.op_class::SimdFloatCvt                  0      0.00%     76.41% # Class of executed instruction
system.cpu1.op_class::SimdFloatDiv                  0      0.00%     76.41% # Class of executed instruction
system.cpu1.op_class::SimdFloatMisc                 0      0.00%     76.41% # Class of executed instruction
system.cpu1.op_class::SimdFloatMult                 0      0.00%     76.41% # Class of executed instruction
system.cpu1.op_class::SimdFloatMultAcc              0      0.00%     76.41% # Class of executed instruction
system.cpu1.op_class::SimdFloatSqrt                 0      0.00%     76.41% # Class of executed instruction
system.cpu1.op_class::MemRead                  927792     14.67%     91.08% # Class of executed instruction
system.cpu1.op_class::MemWrite                 564455      8.92%    100.00% # Class of executed instruction
system.cpu1.op_class::IprAccess                     0      0.00%    100.00% # Class of executed instruction
system.cpu1.op_class::InstPrefetch                  0      0.00%    100.00% # Class of executed instruction
system.cpu1.op_class::total                   6325931                       # Class of executed instruction
system.cpu2.apic_clk_domain.clock                8000                       # Clock period in ticks
system.cpu2.numCycles                      7883869087                       # number of cpu cycles simulated
system.cpu2.numWorkItemsStarted                     0                       # number of work items this cpu started
system.cpu2.numWorkItemsCompleted                   0                       # number of work items this cpu completed
system.cpu2.kern.inst.arm                           0                       # number of arm instructions executed
system.cpu2.kern.inst.quiesce                       0                       # number of quiesce instructions executed
system.cpu2.committedInsts                    3510212                       # Number of instructions committed
system.cpu2.committedOps                      7333722                       # Number of ops (including micro ops) committed
system.cpu2.num_int_alu_accesses              7186304                       # Number of integer alu accesses
system.cpu2.num_fp_alu_accesses                  1837                       # Number of float alu accesses
system.cpu2.num_func_calls                     187584                       # number of times a function call or return occured
system.cpu2.num_conditional_control_insts       542200                       # number of instructions that are conditional controls
system.cpu2.num_int_insts                     7186304                       # number of integer instructions
system.cpu2.num_fp_insts                         1837                       # number of float instructions
system.cpu2.num_int_register_reads           14587046                       # number of times the integer registers were read
system.cpu2.num_int_register_writes           5937110                       # number of times the integer registers were written
system.cpu2.num_fp_register_reads                3081                       # number of times the floating registers were read
system.cpu2.num_fp_register_writes               1457                       # number of times the floating registers were written
system.cpu2.num_cc_register_reads             4181231                       # number of times the CC registers were read
system.cpu2.num_cc_register_writes            2257192                       # number of times the CC registers were written
system.cpu2.num_mem_refs                      1717512                       # number of memory refs
system.cpu2.num_load_insts                    1064539                       # Number of load instructions
system.cpu2.num_store_insts                    652973                       # Number of store instructions
system.cpu2.num_idle_cycles              7867222525.093855                       # Number of idle cycles
system.cpu2.num_busy_cycles              16646561.906145                       # Number of busy cycles
system.cpu2.not_idle_fraction                0.002111                       # Percentage of non-idle cycles
system.cpu2.idle_fraction                    0.997889                       # Percentage of idle cycles
system.cpu2.Branches                           793347                       # Number of branches fetched
system.cpu2.op_class::No_OpClass               121064      1.65%      1.65% # Class of executed instruction
system.cpu2.op_class::IntAlu                  5437470     74.14%     75.79% # Class of executed instruction
system.cpu2.op_class::IntMult                   13388      0.18%     75.98% # Class of executed instruction
system.cpu2.op_class::IntDiv                    43009      0.59%     76.56% # Class of executed instruction
system.cpu2.op_class::FloatAdd                   1366      0.02%     76.58% # Class of executed instruction
system.cpu2.op_class::FloatCmp                      0      0.00%     76.58% # Class of executed instruction
system.cpu2.op_class::FloatCvt                      0      0.00%     76.58% # Class of executed instruction
system.cpu2.op_class::FloatMult                     0      0.00%     76.58% # Class of executed instruction
system.cpu2.op_class::FloatDiv                      0      0.00%     76.58% # Class of executed instruction
system.cpu2.op_class::FloatSqrt                     0      0.00%     76.58% # Class of executed instruction
system.cpu2.op_class::SimdAdd                       0      0.00%     76.58% # Class of executed instruction
system.cpu2.op_class::SimdAddAcc                    0      0.00%     76.58% # Class of executed instruction
system.cpu2.op_class::SimdAlu                       0      0.00%     76.58% # Class of executed instruction
system.cpu2.op_class::SimdCmp                       0      0.00%     76.58% # Class of executed instruction
system.cpu2.op_class::SimdCvt                       0      0.00%     76.58% # Class of executed instruction
system.cpu2.op_class::SimdMisc                      0      0.00%     76.58% # Class of executed instruction
system.cpu2.op_class::SimdMult                      0      0.00%     76.58% # Class of executed instruction
system.cpu2.op_class::SimdMultAcc                   0      0.00%     76.58% # Class of executed instruction
system.cpu2.op_class::SimdShift                     0      0.00%     76.58% # Class of executed instruction
system.cpu2.op_class::SimdShiftAcc                  0      0.00%     76.58% # Class of executed instruction
system.cpu2.op_class::SimdSqrt                      0      0.00%     76.58% # Class of executed instruction
system.cpu2.op_class::SimdFloatAdd                  0      0.00%     76.58% # Class of executed instruction
system.cpu2.op_class::SimdFloatAlu                  0      0.00%     76.58% # Class of executed instruction
system.cpu2.op_class::SimdFloatCmp                  0      0.00%     76.58% # Class of executed instruction
system.cpu2.op_class::SimdFloatCvt                  0      0.00%     76.58% # Class of executed instruction
system.cpu2.op_class::SimdFloatDiv                  0      0.00%     76.58% # Class of executed instruction
system.cpu2.op_class::SimdFloatMisc                 0      0.00%     76.58% # Class of executed instruction
system.cpu2.op_class::SimdFloatMult                 0      0.00%     76.58% # Class of executed instruction
system.cpu2.op_class::SimdFloatMultAcc              0      0.00%     76.58% # Class of executed instruction
system.cpu2.op_class::SimdFloatSqrt                 0      0.00%     76.58% # Class of executed instruction
system.cpu2.op_class::MemRead                 1064539     14.52%     91.10% # Class of executed instruction
system.cpu2.op_class::MemWrite                 652973      8.90%    100.00% # Class of executed instruction
system.cpu2.op_class::IprAccess                     0      0.00%    100.00% # Class of executed instruction
system.cpu2.op_class::InstPrefetch                  0      0.00%    100.00% # Class of executed instruction
system.cpu2.op_class::total                   7333809                       # Class of executed instruction
system.cpu3.apic_clk_domain.clock                8000                       # Clock period in ticks
system.cpu3.numCycles                      7882672876                       # number of cpu cycles simulated
system.cpu3.numWorkItemsStarted                     0                       # number of work items this cpu started
system.cpu3.numWorkItemsCompleted                   0                       # number of work items this cpu completed
system.cpu3.kern.inst.arm                           0                       # number of arm instructions executed
system.cpu3.kern.inst.quiesce                       0                       # number of quiesce instructions executed
system.cpu3.committedInsts                   19333159                       # Number of instructions committed
system.cpu3.committedOps                     34182302                       # Number of ops (including micro ops) committed
system.cpu3.num_int_alu_accesses             28784645                       # Number of integer alu accesses
system.cpu3.num_fp_alu_accesses               8399271                       # Number of float alu accesses
system.cpu3.num_func_calls                     588667                       # number of times a function call or return occured
system.cpu3.num_conditional_control_insts      2048314                       # number of instructions that are conditional controls
system.cpu3.num_int_insts                    28784645                       # number of integer instructions
system.cpu3.num_fp_insts                      8399271                       # number of float instructions
system.cpu3.num_int_register_reads           55551930                       # number of times the integer registers were read
system.cpu3.num_int_register_writes          21906896                       # number of times the integer registers were written
system.cpu3.num_fp_register_reads            14064247                       # number of times the floating registers were read
system.cpu3.num_fp_register_writes            7474237                       # number of times the floating registers were written
system.cpu3.num_cc_register_reads            13988284                       # number of times the CC registers were read
system.cpu3.num_cc_register_writes           10284911                       # number of times the CC registers were written
system.cpu3.num_mem_refs                      7662377                       # number of memory refs
system.cpu3.num_load_insts                    5708441                       # Number of load instructions
system.cpu3.num_store_insts                   1953936                       # Number of store instructions
system.cpu3.num_idle_cycles              7804507297.520651                       # Number of idle cycles
system.cpu3.num_busy_cycles              78165578.479349                       # Number of busy cycles
system.cpu3.not_idle_fraction                0.009916                       # Percentage of non-idle cycles
system.cpu3.idle_fraction                    0.990084                       # Percentage of idle cycles
system.cpu3.Branches                          2789539                       # Number of branches fetched
system.cpu3.op_class::No_OpClass               127583      0.37%      0.37% # Class of executed instruction
system.cpu3.op_class::IntAlu                 22517268     65.87%     66.25% # Class of executed instruction
system.cpu3.op_class::IntMult                  213588      0.62%     66.87% # Class of executed instruction
system.cpu3.op_class::IntDiv                    43332      0.13%     67.00% # Class of executed instruction
system.cpu3.op_class::FloatAdd                3618197     10.58%     77.58% # Class of executed instruction
system.cpu3.op_class::FloatCmp                      0      0.00%     77.58% # Class of executed instruction
system.cpu3.op_class::FloatCvt                      0      0.00%     77.58% # Class of executed instruction
system.cpu3.op_class::FloatMult                     0      0.00%     77.58% # Class of executed instruction
system.cpu3.op_class::FloatDiv                      0      0.00%     77.58% # Class of executed instruction
system.cpu3.op_class::FloatSqrt                     0      0.00%     77.58% # Class of executed instruction
system.cpu3.op_class::SimdAdd                       0      0.00%     77.58% # Class of executed instruction
system.cpu3.op_class::SimdAddAcc                    0      0.00%     77.58% # Class of executed instruction
system.cpu3.op_class::SimdAlu                       0      0.00%     77.58% # Class of executed instruction
system.cpu3.op_class::SimdCmp                       0      0.00%     77.58% # Class of executed instruction
system.cpu3.op_class::SimdCvt                       0      0.00%     77.58% # Class of executed instruction
system.cpu3.op_class::SimdMisc                      0      0.00%     77.58% # Class of executed instruction
system.cpu3.op_class::SimdMult                      0      0.00%     77.58% # Class of executed instruction
system.cpu3.op_class::SimdMultAcc                   0      0.00%     77.58% # Class of executed instruction
system.cpu3.op_class::SimdShift                     0      0.00%     77.58% # Class of executed instruction
system.cpu3.op_class::SimdShiftAcc                  0      0.00%     77.58% # Class of executed instruction
system.cpu3.op_class::SimdSqrt                      0      0.00%     77.58% # Class of executed instruction
system.cpu3.op_class::SimdFloatAdd                  0      0.00%     77.58% # Class of executed instruction
system.cpu3.op_class::SimdFloatAlu                  0      0.00%     77.58% # Class of executed instruction
system.cpu3.op_class::SimdFloatCmp                  0      0.00%     77.58% # Class of executed instruction
system.cpu3.op_class::SimdFloatCvt                  0      0.00%     77.58% # Class of executed instruction
system.cpu3.op_class::SimdFloatDiv                  0      0.00%     77.58% # Class of executed instruction
system.cpu3.op_class::SimdFloatMisc                 0      0.00%     77.58% # Class of executed instruction
system.cpu3.op_class::SimdFloatMult                 0      0.00%     77.58% # Class of executed instruction
system.cpu3.op_class::SimdFloatMultAcc              0      0.00%     77.58% # Class of executed instruction
system.cpu3.op_class::SimdFloatSqrt                 0      0.00%     77.58% # Class of executed instruction
system.cpu3.op_class::MemRead                 5708441     16.70%     94.28% # Class of executed instruction
system.cpu3.op_class::MemWrite                1953936      5.72%    100.00% # Class of executed instruction
system.cpu3.op_class::IprAccess                     0      0.00%    100.00% # Class of executed instruction
system.cpu3.op_class::InstPrefetch                  0      0.00%    100.00% # Class of executed instruction
system.cpu3.op_class::total                  34182345                       # Class of executed instruction
system.iobus.trans_dist::ReadReq                  113                       # Transaction distribution
system.iobus.trans_dist::ReadResp                 113                       # Transaction distribution
system.iobus.trans_dist::WriteReq                4069                       # Transaction distribution
system.iobus.trans_dist::WriteResp               4069                       # Transaction distribution
system.iobus.trans_dist::MessageReq                19                       # Transaction distribution
system.iobus.trans_dist::MessageResp               19                       # Transaction distribution
system.iobus.pkt_count_system.pc.south_bridge.io_apic.int_master::system.ruby.l0_cntrl0.sequencer.pio-slave-port            4                       # Packet count per connected master and slave (bytes)
system.iobus.pkt_count_system.pc.south_bridge.io_apic.int_master::system.ruby.l0_cntrl1.sequencer.pio-slave-port            4                       # Packet count per connected master and slave (bytes)
system.iobus.pkt_count_system.pc.south_bridge.io_apic.int_master::system.ruby.l0_cntrl2.sequencer.pio-slave-port            4                       # Packet count per connected master and slave (bytes)
system.iobus.pkt_count_system.pc.south_bridge.io_apic.int_master::system.ruby.l0_cntrl3.sequencer.pio-slave-port            4                       # Packet count per connected master and slave (bytes)
system.iobus.pkt_count_system.pc.south_bridge.io_apic.int_master::total           16                       # Packet count per connected master and slave (bytes)
system.iobus.pkt_count_system.ruby.l0_cntrl0.sequencer.mem-master-port::system.pc.south_bridge.ide.pio           12                       # Packet count per connected master and slave (bytes)
system.iobus.pkt_count_system.ruby.l0_cntrl0.sequencer.mem-master-port::system.pc.south_bridge.io_apic.pio            8                       # Packet count per connected master and slave (bytes)
system.iobus.pkt_count_system.ruby.l0_cntrl0.sequencer.mem-master-port::system.ruby.l0_cntrl0.sequencer.pio-slave-port         2000                       # Packet count per connected master and slave (bytes)
system.iobus.pkt_count_system.ruby.l0_cntrl0.sequencer.mem-master-port::system.ruby.l0_cntrl1.sequencer.pio-slave-port            6                       # Packet count per connected master and slave (bytes)
system.iobus.pkt_count_system.ruby.l0_cntrl0.sequencer.mem-master-port::system.ruby.l0_cntrl2.sequencer.pio-slave-port            2                       # Packet count per connected master and slave (bytes)
system.iobus.pkt_count_system.ruby.l0_cntrl0.sequencer.mem-master-port::system.ruby.l0_cntrl3.sequencer.pio-slave-port            4                       # Packet count per connected master and slave (bytes)
system.iobus.pkt_count_system.ruby.l0_cntrl0.sequencer.mem-master-port::total         2032                       # Packet count per connected master and slave (bytes)
system.iobus.pkt_count_system.ruby.l0_cntrl1.sequencer.mem-master-port::system.pc.south_bridge.ide.pio           80                       # Packet count per connected master and slave (bytes)
system.iobus.pkt_count_system.ruby.l0_cntrl1.sequencer.mem-master-port::system.pc.south_bridge.io_apic.pio            8                       # Packet count per connected master and slave (bytes)
system.iobus.pkt_count_system.ruby.l0_cntrl1.sequencer.mem-master-port::system.pc.com_1.pio            2                       # Packet count per connected master and slave (bytes)
system.iobus.pkt_count_system.ruby.l0_cntrl1.sequencer.mem-master-port::system.ruby.l0_cntrl1.sequencer.pio-slave-port         1992                       # Packet count per connected master and slave (bytes)
system.iobus.pkt_count_system.ruby.l0_cntrl1.sequencer.mem-master-port::system.ruby.l0_cntrl2.sequencer.pio-slave-port            2                       # Packet count per connected master and slave (bytes)
system.iobus.pkt_count_system.ruby.l0_cntrl1.sequencer.mem-master-port::total         2084                       # Packet count per connected master and slave (bytes)
system.iobus.pkt_count_system.ruby.l0_cntrl2.sequencer.mem-master-port::system.pc.south_bridge.ide.pio           46                       # Packet count per connected master and slave (bytes)
system.iobus.pkt_count_system.ruby.l0_cntrl2.sequencer.mem-master-port::system.pc.south_bridge.io_apic.pio            6                       # Packet count per connected master and slave (bytes)
system.iobus.pkt_count_system.ruby.l0_cntrl2.sequencer.mem-master-port::system.pc.com_1.pio          174                       # Packet count per connected master and slave (bytes)
system.iobus.pkt_count_system.ruby.l0_cntrl2.sequencer.mem-master-port::system.ruby.l0_cntrl1.sequencer.pio-slave-port            2                       # Packet count per connected master and slave (bytes)
system.iobus.pkt_count_system.ruby.l0_cntrl2.sequencer.mem-master-port::system.ruby.l0_cntrl2.sequencer.pio-slave-port         1990                       # Packet count per connected master and slave (bytes)
system.iobus.pkt_count_system.ruby.l0_cntrl2.sequencer.mem-master-port::system.ruby.l0_cntrl3.sequencer.pio-slave-port            2                       # Packet count per connected master and slave (bytes)
system.iobus.pkt_count_system.ruby.l0_cntrl2.sequencer.mem-master-port::total         2220                       # Packet count per connected master and slave (bytes)
system.iobus.pkt_count_system.ruby.l0_cntrl3.sequencer.mem-master-port::system.pc.south_bridge.ide.pio           46                       # Packet count per connected master and slave (bytes)
system.iobus.pkt_count_system.ruby.l0_cntrl3.sequencer.mem-master-port::system.pc.south_bridge.io_apic.pio            8                       # Packet count per connected master and slave (bytes)
system.iobus.pkt_count_system.ruby.l0_cntrl3.sequencer.mem-master-port::system.ruby.l0_cntrl0.sequencer.pio-slave-port            2                       # Packet count per connected master and slave (bytes)
system.iobus.pkt_count_system.ruby.l0_cntrl3.sequencer.mem-master-port::system.ruby.l0_cntrl1.sequencer.pio-slave-port            2                       # Packet count per connected master and slave (bytes)
system.iobus.pkt_count_system.ruby.l0_cntrl3.sequencer.mem-master-port::system.ruby.l0_cntrl3.sequencer.pio-slave-port         1992                       # Packet count per connected master and slave (bytes)
system.iobus.pkt_count_system.ruby.l0_cntrl3.sequencer.mem-master-port::total         2050                       # Packet count per connected master and slave (bytes)
system.iobus.pkt_count::total                    8402                       # Packet count per connected master and slave (bytes)
system.iobus.pkt_size_system.pc.south_bridge.io_apic.int_master::system.ruby.l0_cntrl0.sequencer.pio-slave-port            8                       # Cumulative packet size per connected master and slave (bytes)
system.iobus.pkt_size_system.pc.south_bridge.io_apic.int_master::system.ruby.l0_cntrl1.sequencer.pio-slave-port            8                       # Cumulative packet size per connected master and slave (bytes)
system.iobus.pkt_size_system.pc.south_bridge.io_apic.int_master::system.ruby.l0_cntrl2.sequencer.pio-slave-port            8                       # Cumulative packet size per connected master and slave (bytes)
system.iobus.pkt_size_system.pc.south_bridge.io_apic.int_master::system.ruby.l0_cntrl3.sequencer.pio-slave-port            8                       # Cumulative packet size per connected master and slave (bytes)
system.iobus.pkt_size_system.pc.south_bridge.io_apic.int_master::total           32                       # Cumulative packet size per connected master and slave (bytes)
system.iobus.pkt_size_system.ruby.l0_cntrl0.sequencer.mem-master-port::system.pc.south_bridge.ide.pio            6                       # Cumulative packet size per connected master and slave (bytes)
system.iobus.pkt_size_system.ruby.l0_cntrl0.sequencer.mem-master-port::system.pc.south_bridge.io_apic.pio           16                       # Cumulative packet size per connected master and slave (bytes)
system.iobus.pkt_size_system.ruby.l0_cntrl0.sequencer.mem-master-port::system.ruby.l0_cntrl0.sequencer.pio-slave-port         4000                       # Cumulative packet size per connected master and slave (bytes)
system.iobus.pkt_size_system.ruby.l0_cntrl0.sequencer.mem-master-port::system.ruby.l0_cntrl1.sequencer.pio-slave-port           12                       # Cumulative packet size per connected master and slave (bytes)
system.iobus.pkt_size_system.ruby.l0_cntrl0.sequencer.mem-master-port::system.ruby.l0_cntrl2.sequencer.pio-slave-port            4                       # Cumulative packet size per connected master and slave (bytes)
system.iobus.pkt_size_system.ruby.l0_cntrl0.sequencer.mem-master-port::system.ruby.l0_cntrl3.sequencer.pio-slave-port            8                       # Cumulative packet size per connected master and slave (bytes)
system.iobus.pkt_size_system.ruby.l0_cntrl0.sequencer.mem-master-port::total         4046                       # Cumulative packet size per connected master and slave (bytes)
system.iobus.pkt_size_system.ruby.l0_cntrl1.sequencer.mem-master-port::system.pc.south_bridge.ide.pio           46                       # Cumulative packet size per connected master and slave (bytes)
system.iobus.pkt_size_system.ruby.l0_cntrl1.sequencer.mem-master-port::system.pc.south_bridge.io_apic.pio           16                       # Cumulative packet size per connected master and slave (bytes)
system.iobus.pkt_size_system.ruby.l0_cntrl1.sequencer.mem-master-port::system.pc.com_1.pio            1                       # Cumulative packet size per connected master and slave (bytes)
system.iobus.pkt_size_system.ruby.l0_cntrl1.sequencer.mem-master-port::system.ruby.l0_cntrl1.sequencer.pio-slave-port         3984                       # Cumulative packet size per connected master and slave (bytes)
system.iobus.pkt_size_system.ruby.l0_cntrl1.sequencer.mem-master-port::system.ruby.l0_cntrl2.sequencer.pio-slave-port            4                       # Cumulative packet size per connected master and slave (bytes)
system.iobus.pkt_size_system.ruby.l0_cntrl1.sequencer.mem-master-port::total         4051                       # Cumulative packet size per connected master and slave (bytes)
system.iobus.pkt_size_system.ruby.l0_cntrl2.sequencer.mem-master-port::system.pc.south_bridge.ide.pio           26                       # Cumulative packet size per connected master and slave (bytes)
system.iobus.pkt_size_system.ruby.l0_cntrl2.sequencer.mem-master-port::system.pc.south_bridge.io_apic.pio           12                       # Cumulative packet size per connected master and slave (bytes)
system.iobus.pkt_size_system.ruby.l0_cntrl2.sequencer.mem-master-port::system.pc.com_1.pio           87                       # Cumulative packet size per connected master and slave (bytes)
system.iobus.pkt_size_system.ruby.l0_cntrl2.sequencer.mem-master-port::system.ruby.l0_cntrl1.sequencer.pio-slave-port            4                       # Cumulative packet size per connected master and slave (bytes)
system.iobus.pkt_size_system.ruby.l0_cntrl2.sequencer.mem-master-port::system.ruby.l0_cntrl2.sequencer.pio-slave-port         3980                       # Cumulative packet size per connected master and slave (bytes)
system.iobus.pkt_size_system.ruby.l0_cntrl2.sequencer.mem-master-port::system.ruby.l0_cntrl3.sequencer.pio-slave-port            4                       # Cumulative packet size per connected master and slave (bytes)
system.iobus.pkt_size_system.ruby.l0_cntrl2.sequencer.mem-master-port::total         4113                       # Cumulative packet size per connected master and slave (bytes)
system.iobus.pkt_size_system.ruby.l0_cntrl3.sequencer.mem-master-port::system.pc.south_bridge.ide.pio           26                       # Cumulative packet size per connected master and slave (bytes)
system.iobus.pkt_size_system.ruby.l0_cntrl3.sequencer.mem-master-port::system.pc.south_bridge.io_apic.pio           16                       # Cumulative packet size per connected master and slave (bytes)
system.iobus.pkt_size_system.ruby.l0_cntrl3.sequencer.mem-master-port::system.ruby.l0_cntrl0.sequencer.pio-slave-port            4                       # Cumulative packet size per connected master and slave (bytes)
system.iobus.pkt_size_system.ruby.l0_cntrl3.sequencer.mem-master-port::system.ruby.l0_cntrl1.sequencer.pio-slave-port            4                       # Cumulative packet size per connected master and slave (bytes)
system.iobus.pkt_size_system.ruby.l0_cntrl3.sequencer.mem-master-port::system.ruby.l0_cntrl3.sequencer.pio-slave-port         3984                       # Cumulative packet size per connected master and slave (bytes)
system.iobus.pkt_size_system.ruby.l0_cntrl3.sequencer.mem-master-port::total         4034                       # Cumulative packet size per connected master and slave (bytes)
system.iobus.pkt_size::total                    16276                       # Cumulative packet size per connected master and slave (bytes)
system.iobus.reqLayer2.occupancy               161500                       # Layer occupancy (ticks)
system.iobus.reqLayer2.utilization                0.0                       # Layer utilization (%)
system.iobus.reqLayer8.occupancy                26996                       # Layer occupancy (ticks)
system.iobus.reqLayer8.utilization                0.0                       # Layer utilization (%)
system.iobus.reqLayer12.occupancy              112500                       # Layer occupancy (ticks)
system.iobus.reqLayer12.utilization               0.0                       # Layer utilization (%)
system.iobus.reqLayer17.occupancy             2277980                       # Layer occupancy (ticks)
system.iobus.reqLayer17.utilization               0.0                       # Layer utilization (%)
system.iobus.reqLayer18.occupancy             2499498                       # Layer occupancy (ticks)
system.iobus.reqLayer18.utilization               0.0                       # Layer utilization (%)
system.iobus.reqLayer19.occupancy             2488497                       # Layer occupancy (ticks)
system.iobus.reqLayer19.utilization               0.0                       # Layer utilization (%)
system.iobus.reqLayer20.occupancy             2487993                       # Layer occupancy (ticks)
system.iobus.reqLayer20.utilization               0.0                       # Layer utilization (%)
system.iobus.respLayer0.occupancy               12496                       # Layer occupancy (ticks)
system.iobus.respLayer0.utilization               0.0                       # Layer utilization (%)
system.iobus.respLayer2.occupancy             1525500                       # Layer occupancy (ticks)
system.iobus.respLayer2.utilization               0.0                       # Layer utilization (%)
system.iobus.respLayer4.occupancy             1555000                       # Layer occupancy (ticks)
system.iobus.respLayer4.utilization               0.0                       # Layer utilization (%)
system.iobus.respLayer6.occupancy             1683500                       # Layer occupancy (ticks)
system.iobus.respLayer6.utilization               0.0                       # Layer utilization (%)
system.iobus.respLayer8.occupancy             1535000                       # Layer occupancy (ticks)
system.iobus.respLayer8.utilization               0.0                       # Layer utilization (%)
system.pc.south_bridge.ide.disks.dma_read_full_pages            1                       # Number of full page size DMA reads (not PRD).
system.pc.south_bridge.ide.disks.dma_read_bytes         4096                       # Number of bytes transfered via DMA reads (not PRD).
system.pc.south_bridge.ide.disks.dma_read_txs            1                       # Number of DMA read transactions (not PRD).
system.pc.south_bridge.ide.disks.dma_write_full_pages           45                       # Number of full page size DMA writes.
system.pc.south_bridge.ide.disks.dma_write_bytes       184320                       # Number of bytes transfered via DMA writes.
system.pc.south_bridge.ide.disks.dma_write_txs           45                       # Number of DMA write transactions.
system.ruby.clk_domain.clock                      500                       # Clock period in ticks
system.ruby.delayHist::bucket_size                  8                       # delay histogram for all message
system.ruby.delayHist::max_bucket                  79                       # delay histogram for all message
system.ruby.delayHist::samples              186537077                       # delay histogram for all message
system.ruby.delayHist::mean                  0.215134                       # delay histogram for all message
system.ruby.delayHist::stdev                 1.842455                       # delay histogram for all message
[...]
system.ruby.L1Cache_Controller.Data_all_Acks |     2141630     90.92%     90.92% |       49038      2.08%     93.01% |       85014      3.61%     96.61% |       79747      3.39%    100.00%
system.ruby.L1Cache_Controller.Data_all_Acks::total      2355429                      
system.ruby.L1Cache_Controller.L0_Ack    |      718934     79.87%     79.87% |       47653      5.29%     85.16% |       73467      8.16%     93.32% |       60127      6.68%    100.00%
system.ruby.L1Cache_Controller.L0_Ack::total       900181                      
system.ruby.L1Cache_Controller.Ack       |       14673     55.05%     55.05% |        3970     14.89%     69.94% |        4331     16.25%     86.19% |        3680     13.81%    100.00%
system.ruby.L1Cache_Controller.Ack::total        26654                      
system.ruby.L1Cache_Controller.Ack_all   |        6878     43.81%     43.81% |        2944     18.75%     62.56% |        3289     20.95%     83.51% |        2588     16.49%    100.00%
system.ruby.L1Cache_Controller.Ack_all::total        15699                      
system.ruby.L1Cache_Controller.WB_Ack    |     7153197     97.12%     97.12% |       27232      0.37%     97.49% |       78299      1.06%     98.55% |      106806      1.45%    100.00%
system.ruby.L1Cache_Controller.WB_Ack::total      7365534                      
system.ruby.L1Cache_Controller.I.Load    |     5614442     94.30%     94.30% |       67771      1.14%     95.44% |      132526      2.23%     97.66% |      139247      2.34%    100.00%
system.ruby.L1Cache_Controller.I.Load::total      5953986                      
system.ruby.L1Cache_Controller.I.Store   |     1842262     96.94%     96.94% |        9240      0.49%     97.42% |       19278      1.01%     98.44% |       29683      1.56%    100.00%
system.ruby.L1Cache_Controller.I.Store::total      1900463                      
system.ruby.L1Cache_Controller.I.Inv     |         902      6.98%      6.98% |        3983     30.84%     37.82% |        4061     31.44%     69.26% |        3971     30.74%    100.00%
system.ruby.L1Cache_Controller.I.Inv::total        12917                      
system.ruby.L1Cache_Controller.S.Load    |    11694475     93.95%     93.95% |      212832      1.71%     95.66% |      253320      2.04%     97.70% |      286370      2.30%    100.00%
system.ruby.L1Cache_Controller.S.Load::total     12446997                      
system.ruby.L1Cache_Controller.S.Store   |        3838     36.95%     36.95% |        1924     18.52%     55.48% |        2182     21.01%     76.49% |        2442     23.51%    100.00%
system.ruby.L1Cache_Controller.S.Store::total        10386                      
system.ruby.L1Cache_Controller.S.L0_Invalidate_Own |      300024     65.43%     65.43% |       41455      9.04%     74.47% |       64728     14.12%     88.59% |       52311     11.41%    100.00%
system.ruby.L1Cache_Controller.S.L0_Invalidate_Own::total       458518                      
system.ruby.L1Cache_Controller.S.L0_Invalidate_Else |         109      0.89%      0.89% |        5115     41.67%     42.56% |        5206     42.41%     84.98% |        1844     15.02%    100.00%
system.ruby.L1Cache_Controller.S.L0_Invalidate_Else::total        12274                      
system.ruby.L1Cache_Controller.SS.Load   |         380      9.61%      9.61% |        1278     32.32%     41.93% |        1149     29.06%     70.99% |        1147     29.01%    100.00%
system.ruby.L1Cache_Controller.SS.Load::total         3954                      
system.ruby.L1Cache_Controller.SS.Store  |          35     20.71%     20.71% |          28     16.57%     37.28% |          45     26.63%     63.91% |          61     36.09%    100.00%
system.ruby.L1Cache_Controller.SS.Store::total          169                      
system.ruby.L1Cache_Controller.SS.Inv    |         829      3.69%      3.69% |        6942     30.93%     34.62% |        7112     31.68%     66.30% |        7564     33.70%    100.00%
system.ruby.L1Cache_Controller.SS.Inv::total        22447                      
system.ruby.L1Cache_Controller.SS.L1_Replacement |      301776     65.36%     65.36% |       41924      9.08%     74.44% |       65189     14.12%     88.56% |       52811     11.44%    100.00%
system.ruby.L1Cache_Controller.SS.L1_Replacement::total       461700                      
system.ruby.L1Cache_Controller.E.WriteBack |     5088253     96.90%     96.90% |       20278      0.39%     97.29% |       60836      1.16%     98.45% |       81555      1.55%    100.00%
system.ruby.L1Cache_Controller.E.WriteBack::total      5250922                      
system.ruby.L1Cache_Controller.E.L0_Invalidate_Own |      222570     98.72%     98.72% |         137      0.06%     98.78% |         732      0.32%     99.11% |        2012      0.89%    100.00%
system.ruby.L1Cache_Controller.E.L0_Invalidate_Own::total       225451                      
system.ruby.L1Cache_Controller.E.L0_Invalidate_Else |          30     13.64%     13.64% |          53     24.09%     37.73% |          57     25.91%     63.64% |          80     36.36%    100.00%
system.ruby.L1Cache_Controller.E.L0_Invalidate_Else::total          220                      
system.ruby.L1Cache_Controller.EE.Inv    |           1     20.00%     20.00% |           2     40.00%     60.00% |           0      0.00%     60.00% |           2     40.00%    100.00%
system.ruby.L1Cache_Controller.EE.Inv::total            5                      
system.ruby.L1Cache_Controller.EE.L1_Replacement |      193926     98.75%     98.75% |         112      0.06%     98.81% |         658      0.34%     99.15% |        1677      0.85%    100.00%
system.ruby.L1Cache_Controller.EE.L1_Replacement::total       196373                      
system.ruby.L1Cache_Controller.EE.Fwd_GETX |           2     14.29%     14.29% |           4     28.57%     42.86% |           5     35.71%     78.57% |           3     21.43%    100.00%
system.ruby.L1Cache_Controller.EE.Fwd_GETX::total           14                      
system.ruby.L1Cache_Controller.EE.Fwd_GETS |          16     11.76%     11.76% |          32     23.53%     35.29% |          46     33.82%     69.12% |          42     30.88%    100.00%
system.ruby.L1Cache_Controller.EE.Fwd_GETS::total          136                      
system.ruby.L1Cache_Controller.M.WriteBack |   128598853     98.74%     98.74% |      141270      0.11%     98.85% |      258557      0.20%     99.05% |     1241728      0.95%    100.00%
system.ruby.L1Cache_Controller.M.WriteBack::total    130240408                      
system.ruby.L1Cache_Controller.M.L0_Invalidate_Own |      273967     96.01%     96.01% |        1760      0.62%     96.62% |        4749      1.66%     98.29% |        4882      1.71%    100.00%
system.ruby.L1Cache_Controller.M.L0_Invalidate_Own::total       285358                      
system.ruby.L1Cache_Controller.M.L0_Invalidate_Else |        1082     16.84%     16.84% |        1383     21.52%     38.35% |        1433     22.30%     60.65% |        2529     39.35%    100.00%
system.ruby.L1Cache_Controller.M.L0_Invalidate_Else::total         6427                      
system.ruby.L1Cache_Controller.MM.Load   |    89029047     98.78%     98.78% |       86767      0.10%     98.88% |      172928      0.19%     99.07% |      839518      0.93%    100.00%
system.ruby.L1Cache_Controller.MM.Load::total     90128260                      
system.ruby.L1Cache_Controller.MM.Store  |    37998735     98.72%     98.72% |       46447      0.12%     98.84% |       70299      0.18%     99.02% |      377421      0.98%    100.00%
system.ruby.L1Cache_Controller.MM.Store::total     38492902                      
system.ruby.L1Cache_Controller.MM.Inv    |          79     19.75%     19.75% |         153     38.25%     58.00% |          57     14.25%     72.25% |         111     27.75%    100.00%
system.ruby.L1Cache_Controller.MM.Inv::total          400                      
system.ruby.L1Cache_Controller.MM.L1_Replacement |     6959271     97.07%     97.07% |       27120      0.38%     97.45% |       77641      1.08%     98.53% |      105129      1.47%    100.00%
system.ruby.L1Cache_Controller.MM.L1_Replacement::total      7169161                      
system.ruby.L1Cache_Controller.MM.Fwd_GETX |         752     17.01%     17.01% |         830     18.77%     35.78% |        1140     25.78%     61.56% |        1700     38.44%    100.00%
system.ruby.L1Cache_Controller.MM.Fwd_GETX::total         4422                      
system.ruby.L1Cache_Controller.MM.Fwd_GETS |        2717     15.83%     15.83% |        3549     20.67%     36.50% |        3485     20.30%     56.80% |        7417     43.20%    100.00%
system.ruby.L1Cache_Controller.MM.Fwd_GETS::total        17168                      
system.ruby.L1Cache_Controller.IS.Data_Exclusive |     5310850     96.97%     96.97% |       20463      0.37%     97.35% |       61628      1.13%     98.47% |       83631      1.53%    100.00%
system.ruby.L1Cache_Controller.IS.Data_Exclusive::total      5476572                      
system.ruby.L1Cache_Controller.IS.DataS_fromL1 |        1219      7.04%      7.04% |        6518     37.67%     44.71% |        4100     23.69%     68.41% |        5467     31.59%    100.00%
system.ruby.L1Cache_Controller.IS.DataS_fromL1::total        17304                      
system.ruby.L1Cache_Controller.IS.Data_all_Acks |      302373     65.72%     65.72% |       40790      8.87%     74.58% |       66798     14.52%     89.10% |       50149     10.90%    100.00%
system.ruby.L1Cache_Controller.IS.Data_all_Acks::total       460110                      
system.ruby.L1Cache_Controller.IM.Data   |        3005     58.39%     58.39% |         993     19.30%     77.69% |        1062     20.64%     98.33% |          86      1.67%    100.00%
system.ruby.L1Cache_Controller.IM.Data::total         5146                      
system.ruby.L1Cache_Controller.IM.Data_all_Acks |     1839257     97.04%     97.04% |        8248      0.44%     97.48% |       18216      0.96%     98.44% |       29598      1.56%    100.00%
system.ruby.L1Cache_Controller.IM.Data_all_Acks::total      1895319                      
system.ruby.L1Cache_Controller.IM.Ack    |           1      9.09%      9.09% |           4     36.36%     45.45% |           6     54.55%    100.00% |           0      0.00%    100.00%
system.ruby.L1Cache_Controller.IM.Ack::total           11                      
system.ruby.L1Cache_Controller.SM.Inv    |           0      0.00%      0.00% |           1     50.00%     50.00% |           0      0.00%     50.00% |           1     50.00%    100.00%
system.ruby.L1Cache_Controller.SM.Inv::total            2                      
system.ruby.L1Cache_Controller.SM.Ack    |       14672     55.07%     55.07% |        3966     14.89%     69.95% |        4325     16.23%     86.19% |        3680     13.81%    100.00%
system.ruby.L1Cache_Controller.SM.Ack::total        26643                      
system.ruby.L1Cache_Controller.SM.Ack_all |        6878     43.81%     43.81% |        2944     18.75%     62.56% |        3289     20.95%     83.51% |        2588     16.49%    100.00%
system.ruby.L1Cache_Controller.SM.Ack_all::total        15699                      
system.ruby.L1Cache_Controller.M_I.WB_Ack |     7153197     97.12%     97.12% |       27232      0.37%     97.49% |       78299      1.06%     98.55% |      106806      1.45%    100.00%
system.ruby.L1Cache_Controller.M_I.WB_Ack::total      7365534                      
system.ruby.L1Cache_Controller.S_IL0.L0_Invalidate_Own |      300024     65.43%     65.43% |       41455      9.04%     74.47% |       64728     14.12%     88.59% |       52311     11.41%    100.00%
system.ruby.L1Cache_Controller.S_IL0.L0_Invalidate_Own::total       458518                      
system.ruby.L1Cache_Controller.S_IL0.L0_Invalidate_Else |         109      0.89%      0.89% |        5115     41.67%     42.56% |        5206     42.41%     84.98% |        1844     15.02%    100.00%
system.ruby.L1Cache_Controller.S_IL0.L0_Invalidate_Else::total        12274                      
system.ruby.L1Cache_Controller.S_IL0.L0_Ack |      300133     63.75%     63.75% |       46570      9.89%     73.64% |       69934     14.85%     88.50% |       54155     11.50%    100.00%
system.ruby.L1Cache_Controller.S_IL0.L0_Ack::total       470792                      
system.ruby.L1Cache_Controller.E_IL0.L0_DataAck |       28655     98.33%     98.33% |          40      0.14%     98.46% |          80      0.27%     98.74% |         368      1.26%    100.00%
system.ruby.L1Cache_Controller.E_IL0.L0_DataAck::total        29143                      
system.ruby.L1Cache_Controller.E_IL0.L0_Invalidate_Own |      222570     98.72%     98.72% |         137      0.06%     98.78% |         732      0.32%     99.11% |        2012      0.89%    100.00%
system.ruby.L1Cache_Controller.E_IL0.L0_Invalidate_Own::total       225451                      
system.ruby.L1Cache_Controller.E_IL0.L0_Invalidate_Else |          30     13.64%     13.64% |          53     24.09%     37.73% |          57     25.91%     63.64% |          80     36.36%    100.00%
system.ruby.L1Cache_Controller.E_IL0.L0_Invalidate_Else::total          220                      
system.ruby.L1Cache_Controller.E_IL0.L0_Ack |      193945     98.69%     98.69% |         150      0.08%     98.76% |         709      0.36%     99.12% |        1724      0.88%    100.00%
system.ruby.L1Cache_Controller.E_IL0.L0_Ack::total       196528                      
system.ruby.L1Cache_Controller.M_IL0.L0_DataAck |       50193     85.18%     85.18% |        2210      3.75%     88.93% |        3358      5.70%     94.63% |        3163      5.37%    100.00%
system.ruby.L1Cache_Controller.M_IL0.L0_DataAck::total        58924                      
system.ruby.L1Cache_Controller.M_IL0.L0_Invalidate_Own |      273967     96.01%     96.01% |        1760      0.62%     96.62% |        4749      1.66%     98.29% |        4882      1.71%    100.00%
system.ruby.L1Cache_Controller.M_IL0.L0_Invalidate_Own::total       285358                      
system.ruby.L1Cache_Controller.M_IL0.L0_Invalidate_Else |        1082     16.84%     16.84% |        1383     21.52%     38.35% |        1433     22.30%     60.65% |        2529     39.35%    100.00%
system.ruby.L1Cache_Controller.M_IL0.L0_Invalidate_Else::total         6427                      
system.ruby.L1Cache_Controller.M_IL0.L0_Ack |      224856     96.56%     96.56% |         933      0.40%     96.96% |        2824      1.21%     98.18% |        4248      1.82%    100.00%
system.ruby.L1Cache_Controller.M_IL0.L0_Ack::total       232861                      
system.ruby.L2Cache_Controller.L1_GETS        5954079      0.00%      0.00%
system.ruby.L2Cache_Controller.L1_GETX        1900473      0.00%      0.00%
system.ruby.L2Cache_Controller.L1_UPGRADE        10555      0.00%      0.00%
system.ruby.L2Cache_Controller.L1_PUTX        7365534      0.00%      0.00%
system.ruby.L2Cache_Controller.L2_Replacement        15045      0.00%      0.00%
system.ruby.L2Cache_Controller.L2_Replacement_clean        11242      0.00%      0.00%
system.ruby.L2Cache_Controller.Mem_Data         33923      0.00%      0.00%
system.ruby.L2Cache_Controller.Mem_Ack          26352      0.00%      0.00%
system.ruby.L2Cache_Controller.WB_Data           8959      0.00%      0.00%
system.ruby.L2Cache_Controller.WB_Data_clean         8745      0.00%      0.00%
system.ruby.L2Cache_Controller.Ack               2390      0.00%      0.00%
system.ruby.L2Cache_Controller.Ack_all           1181      0.00%      0.00%
system.ruby.L2Cache_Controller.Unblock          17304      0.00%      0.00%
system.ruby.L2Cache_Controller.Exclusive_Unblock      7387591      0.00%      0.00%
system.ruby.L2Cache_Controller.MEM_Inv            130      0.00%      0.00%
system.ruby.L2Cache_Controller.NP.L1_GETS        20041      0.00%      0.00%
system.ruby.L2Cache_Controller.NP.L1_GETX        13882      0.00%      0.00%
system.ruby.L2Cache_Controller.SS.L1_GETS       460105      0.00%      0.00%
system.ruby.L2Cache_Controller.SS.L1_GETX         5152      0.00%      0.00%
system.ruby.L2Cache_Controller.SS.L1_UPGRADE        10553      0.00%      0.00%
system.ruby.L2Cache_Controller.SS.L2_Replacement          189      0.00%      0.00%
system.ruby.L2Cache_Controller.SS.L2_Replacement_clean          955      0.00%      0.00%
system.ruby.L2Cache_Controller.SS.MEM_Inv           32      0.00%      0.00%
system.ruby.L2Cache_Controller.M.L1_GETS      5456533      0.00%      0.00%
system.ruby.L2Cache_Controller.M.L1_GETX      1876995      0.00%      0.00%
system.ruby.L2Cache_Controller.M.L2_Replacement        14649      0.00%      0.00%
system.ruby.L2Cache_Controller.M.L2_Replacement_clean        10096      0.00%      0.00%
system.ruby.L2Cache_Controller.M.MEM_Inv           26      0.00%      0.00%
system.ruby.L2Cache_Controller.MT.L1_GETS        17304      0.00%      0.00%
system.ruby.L2Cache_Controller.MT.L1_GETX         4436      0.00%      0.00%
system.ruby.L2Cache_Controller.MT.L1_PUTX      7365534      0.00%      0.00%
system.ruby.L2Cache_Controller.MT.L2_Replacement          207      0.00%      0.00%
system.ruby.L2Cache_Controller.MT.L2_Replacement_clean          191      0.00%      0.00%
system.ruby.L2Cache_Controller.MT.MEM_Inv            7      0.00%      0.00%
system.ruby.L2Cache_Controller.M_I.L1_GETX            1      0.00%      0.00%
system.ruby.L2Cache_Controller.M_I.Mem_Ack        26352      0.00%      0.00%
system.ruby.L2Cache_Controller.M_I.MEM_Inv           26      0.00%      0.00%
system.ruby.L2Cache_Controller.MT_I.WB_Data          170      0.00%      0.00%
system.ruby.L2Cache_Controller.MT_I.WB_Data_clean           41      0.00%      0.00%
system.ruby.L2Cache_Controller.MT_I.Ack_all            3      0.00%      0.00%
system.ruby.L2Cache_Controller.MT_I.MEM_Inv            7      0.00%      0.00%
system.ruby.L2Cache_Controller.MCT_I.WB_Data           86      0.00%      0.00%
system.ruby.L2Cache_Controller.MCT_I.WB_Data_clean          103      0.00%      0.00%
system.ruby.L2Cache_Controller.MCT_I.Ack_all            2      0.00%      0.00%
system.ruby.L2Cache_Controller.I_I.Ack           2100      0.00%      0.00%
system.ruby.L2Cache_Controller.I_I.Ack_all          955      0.00%      0.00%
system.ruby.L2Cache_Controller.S_I.Ack            290      0.00%      0.00%
system.ruby.L2Cache_Controller.S_I.Ack_all          221      0.00%      0.00%
system.ruby.L2Cache_Controller.S_I.MEM_Inv           32      0.00%      0.00%
system.ruby.L2Cache_Controller.ISS.L1_GETS            2      0.00%      0.00%
system.ruby.L2Cache_Controller.ISS.Mem_Data        20039      0.00%      0.00%
system.ruby.L2Cache_Controller.IS.L1_GETS            1      0.00%      0.00%
system.ruby.L2Cache_Controller.IS.Mem_Data            2      0.00%      0.00%
system.ruby.L2Cache_Controller.IM.Mem_Data        13882      0.00%      0.00%
system.ruby.L2Cache_Controller.SS_MB.L1_GETS           79      0.00%      0.00%
system.ruby.L2Cache_Controller.SS_MB.L1_GETX            1      0.00%      0.00%
system.ruby.L2Cache_Controller.SS_MB.L1_UPGRADE            2      0.00%      0.00%
system.ruby.L2Cache_Controller.SS_MB.Exclusive_Unblock        15705      0.00%      0.00%
system.ruby.L2Cache_Controller.MT_MB.L1_GETS            7      0.00%      0.00%
system.ruby.L2Cache_Controller.MT_MB.L1_GETX            4      0.00%      0.00%
system.ruby.L2Cache_Controller.MT_MB.Exclusive_Unblock      7371886      0.00%      0.00%
system.ruby.L2Cache_Controller.MT_IIB.L1_GETS            7      0.00%      0.00%
system.ruby.L2Cache_Controller.MT_IIB.L1_GETX            2      0.00%      0.00%
system.ruby.L2Cache_Controller.MT_IIB.Unblock        17304      0.00%      0.00%
system.ruby.L2Cache_Controller.MT_IB.WB_Data         8703      0.00%      0.00%
system.ruby.L2Cache_Controller.MT_IB.WB_Data_clean         8601      0.00%      0.00%

---------- End Simulation Statistics   ----------
