
---------- Begin Simulation Statistics ----------
sim_seconds                                  0.507592                       # Number of seconds simulated
sim_ticks                                507591807500                       # Number of ticks simulated
final_tick                               52415074467001                       # Number of ticks from beginning of simulation (restored from checkpoints and never reset)
sim_freq                                 1000000000000                       # Frequency of simulated ticks
host_inst_rate                                 133577                       # Simulator instruction rate (inst/s)
host_op_rate                                   241092                       # Simulator op (including micro ops) rate (op/s)
host_tick_rate                              252124468                       # Simulator tick rate (ticks/s)
host_mem_usage                                1819232                       # Number of bytes of host memory used
host_seconds                                  2013.26                       # Real time elapsed on the host
sim_insts                                   268924379                       # Number of instructions simulated
sim_ops                                     485381565                       # Number of ops (including micro ops) simulated
system.voltage_domain.voltage                       1                       # Voltage in Volts
system.clk_domain.clock                          1000                       # Clock period in ticks
system.mem_ctrls0.bytes_read::ruby.dir_cntrl0       117824                       # Number of bytes read from this memory
system.mem_ctrls0.bytes_read::total            117824                       # Number of bytes read from this memory
system.mem_ctrls0.bytes_written::ruby.dir_cntrl0        43008                       # Number of bytes written to this memory
system.mem_ctrls0.bytes_written::total          43008                       # Number of bytes written to this memory
system.mem_ctrls0.num_reads::ruby.dir_cntrl0         1841                       # Number of read requests responded to by this memory
system.mem_ctrls0.num_reads::total               1841                       # Number of read requests responded to by this memory
system.mem_ctrls0.num_writes::ruby.dir_cntrl0          672                       # Number of write requests responded to by this memory
system.mem_ctrls0.num_writes::total               672                       # Number of write requests responded to by this memory
system.mem_ctrls0.bw_read::ruby.dir_cntrl0       232124                       # Total read bandwidth from this memory (bytes/s)
system.mem_ctrls0.bw_read::total               232124                       # Total read bandwidth from this memory (bytes/s)
system.mem_ctrls0.bw_write::ruby.dir_cntrl0        84729                       # Write bandwidth from this memory (bytes/s)
system.mem_ctrls0.bw_write::total               84729                       # Write bandwidth from this memory (bytes/s)
system.mem_ctrls0.bw_total::ruby.dir_cntrl0       316853                       # Total bandwidth to/from this memory (bytes/s)
system.mem_ctrls0.bw_total::total              316853                       # Total bandwidth to/from this memory (bytes/s)
system.mem_ctrls0.readReqs                       1841                       # Number of read requests accepted
system.mem_ctrls0.writeReqs                       672                       # Number of write requests accepted
system.mem_ctrls0.readBursts                     1841                       # Number of DRAM read bursts, including those serviced by the write queue
system.mem_ctrls0.writeBursts                     672                       # Number of DRAM write bursts, including those merged in the write queue
system.mem_ctrls0.bytesReadDRAM                116288                       # Total number of bytes read from DRAM
system.mem_ctrls0.bytesReadWrQ                   1536                       # Total number of bytes read from write queue
system.mem_ctrls0.bytesWritten                  41920                       # Total number of bytes written to DRAM
system.mem_ctrls0.bytesReadSys                 117824                       # Total read bytes from the system interface side
system.mem_ctrls0.bytesWrittenSys               43008                       # Total written bytes from the system interface side
system.mem_ctrls0.servicedByWrQ                    24                       # Number of DRAM read bursts serviced by the write queue
system.mem_ctrls0.mergedWrBursts                    0                       # Number of DRAM write bursts merged with an existing one
system.mem_ctrls0.neitherReadNorWriteReqs            0                       # Number of requests that are neither read nor write
system.mem_ctrls0.perBankRdBursts::0               75                       # Per bank write bursts
system.mem_ctrls0.perBankRdBursts::1               52                       # Per bank write bursts
system.mem_ctrls0.perBankRdBursts::2              102                       # Per bank write bursts
system.mem_ctrls0.perBankRdBursts::3              114                       # Per bank write bursts
system.mem_ctrls0.perBankRdBursts::4               52                       # Per bank write bursts
system.mem_ctrls0.perBankRdBursts::5               92                       # Per bank write bursts
system.mem_ctrls0.perBankRdBursts::6               63                       # Per bank write bursts
system.mem_ctrls0.perBankRdBursts::7              104                       # Per bank write bursts
system.mem_ctrls0.perBankRdBursts::8               69                       # Per bank write bursts
system.mem_ctrls0.perBankRdBursts::9              156                       # Per bank write bursts
system.mem_ctrls0.perBankRdBursts::10              70                       # Per bank write bursts
system.mem_ctrls0.perBankRdBursts::11              41                       # Per bank write bursts
system.mem_ctrls0.perBankRdBursts::12             160                       # Per bank write bursts
system.mem_ctrls0.perBankRdBursts::13             246                       # Per bank write bursts
system.mem_ctrls0.perBankRdBursts::14             207                       # Per bank write bursts
system.mem_ctrls0.perBankRdBursts::15             214                       # Per bank write bursts
system.mem_ctrls0.perBankWrBursts::0              100                       # Per bank write bursts
system.mem_ctrls0.perBankWrBursts::1              131                       # Per bank write bursts
system.mem_ctrls0.perBankWrBursts::2               21                       # Per bank write bursts
system.mem_ctrls0.perBankWrBursts::3               16                       # Per bank write bursts
system.mem_ctrls0.perBankWrBursts::4               12                       # Per bank write bursts
system.mem_ctrls0.perBankWrBursts::5               14                       # Per bank write bursts
system.mem_ctrls0.perBankWrBursts::6              128                       # Per bank write bursts
system.mem_ctrls0.perBankWrBursts::7               32                       # Per bank write bursts
system.mem_ctrls0.perBankWrBursts::8               22                       # Per bank write bursts
system.mem_ctrls0.perBankWrBursts::9               19                       # Per bank write bursts
system.mem_ctrls0.perBankWrBursts::10               6                       # Per bank write bursts
system.mem_ctrls0.perBankWrBursts::11               0                       # Per bank write bursts
system.mem_ctrls0.perBankWrBursts::12              38                       # Per bank write bursts
system.mem_ctrls0.perBankWrBursts::13              21                       # Per bank write bursts
system.mem_ctrls0.perBankWrBursts::14              36                       # Per bank write bursts
system.mem_ctrls0.perBankWrBursts::15              59                       # Per bank write bursts
system.mem_ctrls0.numRdRetry                        0                       # Number of times read queue was full causing retry
system.mem_ctrls0.numWrRetry                        0                       # Number of times write queue was full causing retry
system.mem_ctrls0.totGap                 507582095500                       # Total gap between requests
system.mem_ctrls0.readPktSize::0                    0                       # Read request sizes (log2)
system.mem_ctrls0.readPktSize::1                    0                       # Read request sizes (log2)
system.mem_ctrls0.readPktSize::2                    0                       # Read request sizes (log2)
system.mem_ctrls0.readPktSize::3                    0                       # Read request sizes (log2)
system.mem_ctrls0.readPktSize::4                    0                       # Read request sizes (log2)
system.mem_ctrls0.readPktSize::5                    0                       # Read request sizes (log2)
system.mem_ctrls0.readPktSize::6                 1841                       # Read request sizes (log2)
system.mem_ctrls0.writePktSize::0                   0                       # Write request sizes (log2)
system.mem_ctrls0.writePktSize::1                   0                       # Write request sizes (log2)
system.mem_ctrls0.writePktSize::2                   0                       # Write request sizes (log2)
system.mem_ctrls0.writePktSize::3                   0                       # Write request sizes (log2)
system.mem_ctrls0.writePktSize::4                   0                       # Write request sizes (log2)
system.mem_ctrls0.writePktSize::5                   0                       # Write request sizes (log2)
system.mem_ctrls0.writePktSize::6                 672                       # Write request sizes (log2)
system.mem_ctrls0.rdQLenPdf::0                   1815                       # What read queue length does an incoming req see
system.mem_ctrls0.rdQLenPdf::1                      2                       # What read queue length does an incoming req see
system.mem_ctrls0.rdQLenPdf::2                      0                       # What read queue length does an incoming req see
system.mem_ctrls0.rdQLenPdf::3                      0                       # What read queue length does an incoming req see
system.mem_ctrls0.rdQLenPdf::4                      0                       # What read queue length does an incoming req see
system.mem_ctrls0.rdQLenPdf::5                      0                       # What read queue length does an incoming req see
system.mem_ctrls0.rdQLenPdf::6                      0                       # What read queue length does an incoming req see
system.mem_ctrls0.rdQLenPdf::7                      0                       # What read queue length does an incoming req see
system.mem_ctrls0.rdQLenPdf::8                      0                       # What read queue length does an incoming req see
system.mem_ctrls0.rdQLenPdf::9                      0                       # What read queue length does an incoming req see
system.mem_ctrls0.rdQLenPdf::10                     0                       # What read queue length does an incoming req see
system.mem_ctrls0.rdQLenPdf::11                     0                       # What read queue length does an incoming req see
system.mem_ctrls0.rdQLenPdf::12                     0                       # What read queue length does an incoming req see
system.mem_ctrls0.rdQLenPdf::13                     0                       # What read queue length does an incoming req see
system.mem_ctrls0.rdQLenPdf::14                     0                       # What read queue length does an incoming req see
system.mem_ctrls0.rdQLenPdf::15                     0                       # What read queue length does an incoming req see
system.mem_ctrls0.rdQLenPdf::16                     0                       # What read queue length does an incoming req see
system.mem_ctrls0.rdQLenPdf::17                     0                       # What read queue length does an incoming req see
system.mem_ctrls0.rdQLenPdf::18                     0                       # What read queue length does an incoming req see
system.mem_ctrls0.rdQLenPdf::19                     0                       # What read queue length does an incoming req see
system.mem_ctrls0.rdQLenPdf::20                     0                       # What read queue length does an incoming req see
system.mem_ctrls0.rdQLenPdf::21                     0                       # What read queue length does an incoming req see
system.mem_ctrls0.rdQLenPdf::22                     0                       # What read queue length does an incoming req see
system.mem_ctrls0.rdQLenPdf::23                     0                       # What read queue length does an incoming req see
system.mem_ctrls0.rdQLenPdf::24                     0                       # What read queue length does an incoming req see
system.mem_ctrls0.rdQLenPdf::25                     0                       # What read queue length does an incoming req see
system.mem_ctrls0.rdQLenPdf::26                     0                       # What read queue length does an incoming req see
system.mem_ctrls0.rdQLenPdf::27                     0                       # What read queue length does an incoming req see
system.mem_ctrls0.rdQLenPdf::28                     0                       # What read queue length does an incoming req see
system.mem_ctrls0.rdQLenPdf::29                     0                       # What read queue length does an incoming req see
system.mem_ctrls0.rdQLenPdf::30                     0                       # What read queue length does an incoming req see
system.mem_ctrls0.rdQLenPdf::31                     0                       # What read queue length does an incoming req see
system.mem_ctrls0.wrQLenPdf::0                      0                       # What write queue length does an incoming req see
system.mem_ctrls0.wrQLenPdf::1                      0                       # What write queue length does an incoming req see
system.mem_ctrls0.wrQLenPdf::2                      0                       # What write queue length does an incoming req see
system.mem_ctrls0.wrQLenPdf::3                      0                       # What write queue length does an incoming req see
system.mem_ctrls0.wrQLenPdf::4                      0                       # What write queue length does an incoming req see
system.mem_ctrls0.wrQLenPdf::5                      0                       # What write queue length does an incoming req see
system.mem_ctrls0.wrQLenPdf::6                      0                       # What write queue length does an incoming req see
system.mem_ctrls0.wrQLenPdf::7                      0                       # What write queue length does an incoming req see
system.mem_ctrls0.wrQLenPdf::8                      0                       # What write queue length does an incoming req see
system.mem_ctrls0.wrQLenPdf::9                      0                       # What write queue length does an incoming req see
system.mem_ctrls0.wrQLenPdf::10                     0                       # What write queue length does an incoming req see
system.mem_ctrls0.wrQLenPdf::11                     1                       # What write queue length does an incoming req see
system.mem_ctrls0.wrQLenPdf::12                     1                       # What write queue length does an incoming req see
system.mem_ctrls0.wrQLenPdf::13                     1                       # What write queue length does an incoming req see
system.mem_ctrls0.wrQLenPdf::14                     1                       # What write queue length does an incoming req see
system.mem_ctrls0.wrQLenPdf::15                    31                       # What write queue length does an incoming req see
system.mem_ctrls0.wrQLenPdf::16                    34                       # What write queue length does an incoming req see
system.mem_ctrls0.wrQLenPdf::17                    39                       # What write queue length does an incoming req see
system.mem_ctrls0.wrQLenPdf::18                    37                       # What write queue length does an incoming req see
system.mem_ctrls0.wrQLenPdf::19                    39                       # What write queue length does an incoming req see
system.mem_ctrls0.wrQLenPdf::20                    38                       # What write queue length does an incoming req see
system.mem_ctrls0.wrQLenPdf::21                    43                       # What write queue length does an incoming req see
system.mem_ctrls0.wrQLenPdf::22                    37                       # What write queue length does an incoming req see
system.mem_ctrls0.wrQLenPdf::23                    37                       # What write queue length does an incoming req see
system.mem_ctrls0.wrQLenPdf::24                    37                       # What write queue length does an incoming req see
system.mem_ctrls0.wrQLenPdf::25                    37                       # What write queue length does an incoming req see
system.mem_ctrls0.wrQLenPdf::26                    38                       # What write queue length does an incoming req see
system.mem_ctrls0.wrQLenPdf::27                    37                       # What write queue length does an incoming req see
system.mem_ctrls0.wrQLenPdf::28                    38                       # What write queue length does an incoming req see
system.mem_ctrls0.wrQLenPdf::29                    36                       # What write queue length does an incoming req see
system.mem_ctrls0.wrQLenPdf::30                    36                       # What write queue length does an incoming req see
system.mem_ctrls0.wrQLenPdf::31                    36                       # What write queue length does an incoming req see
system.mem_ctrls0.wrQLenPdf::32                    36                       # What write queue length does an incoming req see
system.mem_ctrls0.wrQLenPdf::33                     1                       # What write queue length does an incoming req see
system.mem_ctrls0.wrQLenPdf::34                     1                       # What write queue length does an incoming req see
system.mem_ctrls0.wrQLenPdf::35                     0                       # What write queue length does an incoming req see
system.mem_ctrls0.wrQLenPdf::36                     0                       # What write queue length does an incoming req see
system.mem_ctrls0.wrQLenPdf::37                     0                       # What write queue length does an incoming req see
system.mem_ctrls0.wrQLenPdf::38                     0                       # What write queue length does an incoming req see
system.mem_ctrls0.wrQLenPdf::39                     0                       # What write queue length does an incoming req see
system.mem_ctrls0.wrQLenPdf::40                     0                       # What write queue length does an incoming req see
system.mem_ctrls0.wrQLenPdf::41                     0                       # What write queue length does an incoming req see
system.mem_ctrls0.wrQLenPdf::42                     0                       # What write queue length does an incoming req see
system.mem_ctrls0.wrQLenPdf::43                     0                       # What write queue length does an incoming req see
system.mem_ctrls0.wrQLenPdf::44                     0                       # What write queue length does an incoming req see
system.mem_ctrls0.wrQLenPdf::45                     0                       # What write queue length does an incoming req see
system.mem_ctrls0.wrQLenPdf::46                     0                       # What write queue length does an incoming req see
system.mem_ctrls0.wrQLenPdf::47                     0                       # What write queue length does an incoming req see
system.mem_ctrls0.wrQLenPdf::48                     0                       # What write queue length does an incoming req see
system.mem_ctrls0.wrQLenPdf::49                     0                       # What write queue length does an incoming req see
system.mem_ctrls0.wrQLenPdf::50                     0                       # What write queue length does an incoming req see
system.mem_ctrls0.wrQLenPdf::51                     0                       # What write queue length does an incoming req see
system.mem_ctrls0.wrQLenPdf::52                     0                       # What write queue length does an incoming req see
system.mem_ctrls0.wrQLenPdf::53                     0                       # What write queue length does an incoming req see
system.mem_ctrls0.wrQLenPdf::54                     0                       # What write queue length does an incoming req see
system.mem_ctrls0.wrQLenPdf::55                     0                       # What write queue length does an incoming req see
system.mem_ctrls0.wrQLenPdf::56                     0                       # What write queue length does an incoming req see
system.mem_ctrls0.wrQLenPdf::57                     0                       # What write queue length does an incoming req see
system.mem_ctrls0.wrQLenPdf::58                     0                       # What write queue length does an incoming req see
system.mem_ctrls0.wrQLenPdf::59                     0                       # What write queue length does an incoming req see
system.mem_ctrls0.wrQLenPdf::60                     0                       # What write queue length does an incoming req see
system.mem_ctrls0.wrQLenPdf::61                     0                       # What write queue length does an incoming req see
system.mem_ctrls0.wrQLenPdf::62                     0                       # What write queue length does an incoming req see
system.mem_ctrls0.wrQLenPdf::63                     0                       # What write queue length does an incoming req see
system.mem_ctrls0.bytesPerActivate::samples          997                       # Bytes accessed per row activation
system.mem_ctrls0.bytesPerActivate::mean   158.812437                       # Bytes accessed per row activation
system.mem_ctrls0.bytesPerActivate::gmean   106.551064                       # Bytes accessed per row activation
system.mem_ctrls0.bytesPerActivate::stdev   203.509455                       # Bytes accessed per row activation
system.mem_ctrls0.bytesPerActivate::0-127          611     61.28%     61.28% # Bytes accessed per row activation
system.mem_ctrls0.bytesPerActivate::128-255          221     22.17%     83.45% # Bytes accessed per row activation
system.mem_ctrls0.bytesPerActivate::256-383           86      8.63%     92.08% # Bytes accessed per row activation
system.mem_ctrls0.bytesPerActivate::384-511           14      1.40%     93.48% # Bytes accessed per row activation
system.mem_ctrls0.bytesPerActivate::512-639           12      1.20%     94.68% # Bytes accessed per row activation
system.mem_ctrls0.bytesPerActivate::640-767           10      1.00%     95.69% # Bytes accessed per row activation
system.mem_ctrls0.bytesPerActivate::768-895            7      0.70%     96.39% # Bytes accessed per row activation
system.mem_ctrls0.bytesPerActivate::896-1023            9      0.90%     97.29% # Bytes accessed per row activation
system.mem_ctrls0.bytesPerActivate::1024-1151           27      2.71%    100.00% # Bytes accessed per row activation
system.mem_ctrls0.bytesPerActivate::total          997                       # Bytes accessed per row activation
system.mem_ctrls0.rdPerTurnAround::samples           36                       # Reads before turning the bus around for writes
system.mem_ctrls0.rdPerTurnAround::mean    152.972222                       # Reads before turning the bus around for writes
system.mem_ctrls0.rdPerTurnAround::stdev   675.979775                       # Reads before turning the bus around for writes
system.mem_ctrls0.rdPerTurnAround::0-127           31     86.11%     86.11% # Reads before turning the bus around for writes
system.mem_ctrls0.rdPerTurnAround::128-255            2      5.56%     91.67% # Reads before turning the bus around for writes
system.mem_ctrls0.rdPerTurnAround::256-383            1      2.78%     94.44% # Reads before turning the bus around for writes
system.mem_ctrls0.rdPerTurnAround::384-511            1      2.78%     97.22% # Reads before turning the bus around for writes
system.mem_ctrls0.rdPerTurnAround::3968-4095            1      2.78%    100.00% # Reads before turning the bus around for writes
system.mem_ctrls0.rdPerTurnAround::total           36                       # Reads before turning the bus around for writes
system.mem_ctrls0.wrPerTurnAround::samples           36                       # Writes before turning the bus around for reads
system.mem_ctrls0.wrPerTurnAround::mean     18.194444                       # Writes before turning the bus around for reads
system.mem_ctrls0.wrPerTurnAround::gmean    18.155545                       # Writes before turning the bus around for reads
system.mem_ctrls0.wrPerTurnAround::stdev     1.190905                       # Writes before turning the bus around for reads
system.mem_ctrls0.wrPerTurnAround::16               6     16.67%     16.67% # Writes before turning the bus around for reads
system.mem_ctrls0.wrPerTurnAround::18              14     38.89%     55.56% # Writes before turning the bus around for reads
system.mem_ctrls0.wrPerTurnAround::19              14     38.89%     94.44% # Writes before turning the bus around for reads
system.mem_ctrls0.wrPerTurnAround::20               1      2.78%     97.22% # Writes before turning the bus around for reads
system.mem_ctrls0.wrPerTurnAround::21               1      2.78%    100.00% # Writes before turning the bus around for reads
system.mem_ctrls0.wrPerTurnAround::total           36                       # Writes before turning the bus around for reads
system.mem_ctrls0.totQLat                    19885500                       # Total ticks spent queuing
system.mem_ctrls0.totMemAccLat               53954250                       # Total ticks spent from burst creation until serviced by the DRAM
system.mem_ctrls0.totBusLat                   9085000                       # Total ticks spent in databus transfers
system.mem_ctrls0.avgQLat                    10944.14                       # Average queueing delay per DRAM burst
system.mem_ctrls0.avgBusLat                   5000.00                       # Average bus latency per DRAM burst
system.mem_ctrls0.avgMemAccLat               29694.14                       # Average memory access latency per DRAM burst
system.mem_ctrls0.avgRdBW                        0.23                       # Average DRAM read bandwidth in MiByte/s
system.mem_ctrls0.avgWrBW                        0.08                       # Average achieved write bandwidth in MiByte/s
system.mem_ctrls0.avgRdBWSys                     0.23                       # Average system read bandwidth in MiByte/s
system.mem_ctrls0.avgWrBWSys                     0.08                       # Average system write bandwidth in MiByte/s
system.mem_ctrls0.peakBW                     12800.00                       # Theoretical peak bandwidth in MiByte/s
system.mem_ctrls0.busUtil                        0.00                       # Data bus utilization in percentage
system.mem_ctrls0.busUtilRead                    0.00                       # Data bus utilization in percentage for reads
system.mem_ctrls0.busUtilWrite                   0.00                       # Data bus utilization in percentage for writes
system.mem_ctrls0.avgRdQLen                      1.00                       # Average read queue length when enqueuing
system.mem_ctrls0.avgWrQLen                     28.40                       # Average write queue length when enqueuing
system.mem_ctrls0.readRowHits                     934                       # Number of row buffer hits during reads
system.mem_ctrls0.writeRowHits                    542                       # Number of row buffer hits during writes
system.mem_ctrls0.readRowHitRate                51.40                       # Row buffer hit rate for reads
system.mem_ctrls0.writeRowHitRate               80.65                       # Row buffer hit rate for writes
system.mem_ctrls0.avgGap                 201982529.05                       # Average gap between requests
system.mem_ctrls0.pageHitRate                   59.30                       # Row buffer hit rate, read and write combined
system.mem_ctrls0_0.actEnergy                 8368920                       # Energy for activate commands per rank (pJ)
system.mem_ctrls0_0.preEnergy                 4566375                       # Energy for precharge commands per rank (pJ)
system.mem_ctrls0_0.readEnergy               20139600                       # Energy for read commands per rank (pJ)
system.mem_ctrls0_0.writeEnergy               2941920                       # Energy for write commands per rank (pJ)
system.mem_ctrls0_0.refreshEnergy         33394592400                       # Energy for refresh commands per rank (pJ)
system.mem_ctrls0_0.actBackEnergy         12890192895                       # Energy for active background per rank (pJ)
system.mem_ctrls0_0.preBackEnergy        295463424750                       # Energy for precharge background per rank (pJ)
system.mem_ctrls0_0.totalEnergy          341784226860                       # Total energy per rank (pJ)
system.mem_ctrls0_0.averagePower           668.481688                       # Core power per rank (mW)
system.mem_ctrls0_0.memoryStateTime::IDLE 489638815000                       # Time in different power states
system.mem_ctrls0_0.memoryStateTime::REF  16949660000                       # Time in different power states
system.mem_ctrls0_0.memoryStateTime::PRE_PDN            0                       # Time in different power states
system.mem_ctrls0_0.memoryStateTime::ACT   1002993250                       # Time in different power states
system.mem_ctrls0_0.memoryStateTime::ACT_PDN            0                       # Time in different power states
system.mem_ctrls0_1.actEnergy                10508400                       # Energy for activate commands per rank (pJ)
system.mem_ctrls0_1.preEnergy                 5733750                       # Energy for precharge commands per rank (pJ)
system.mem_ctrls0_1.readEnergy               23306400                       # Energy for read commands per rank (pJ)
system.mem_ctrls0_1.writeEnergy               1302480                       # Energy for write commands per rank (pJ)
system.mem_ctrls0_1.refreshEnergy         33394592400                       # Energy for refresh commands per rank (pJ)
system.mem_ctrls0_1.actBackEnergy         13049989830                       # Energy for active background per rank (pJ)
system.mem_ctrls0_1.preBackEnergy        295323252000                       # Energy for precharge background per rank (pJ)
system.mem_ctrls0_1.totalEnergy          341808685260                       # Total energy per rank (pJ)
system.mem_ctrls0_1.averagePower           668.529525                       # Core power per rank (mW)
system.mem_ctrls0_1.memoryStateTime::IDLE 489436581750                       # Time in different power states
system.mem_ctrls0_1.memoryStateTime::REF  16949660000                       # Time in different power states
system.mem_ctrls0_1.memoryStateTime::PRE_PDN            0                       # Time in different power states
system.mem_ctrls0_1.memoryStateTime::ACT   1207168250                       # Time in different power states
system.mem_ctrls0_1.memoryStateTime::ACT_PDN            0                       # Time in different power states
system.mem_ctrls1.bytes_read::ruby.dir_cntrl1       111360                       # Number of bytes read from this memory
system.mem_ctrls1.bytes_read::total            111360                       # Number of bytes read from this memory
system.mem_ctrls1.bytes_written::ruby.dir_cntrl1        41472                       # Number of bytes written to this memory
system.mem_ctrls1.bytes_written::total          41472                       # Number of bytes written to this memory
system.mem_ctrls1.num_reads::ruby.dir_cntrl1         1740                       # Number of read requests responded to by this memory
system.mem_ctrls1.num_reads::total               1740                       # Number of read requests responded to by this memory
system.mem_ctrls1.num_writes::ruby.dir_cntrl1          648                       # Number of write requests responded to by this memory
system.mem_ctrls1.num_writes::total               648                       # Number of write requests responded to by this memory
system.mem_ctrls1.bw_read::ruby.dir_cntrl1       219389                       # Total read bandwidth from this memory (bytes/s)
system.mem_ctrls1.bw_read::total               219389                       # Total read bandwidth from this memory (bytes/s)
system.mem_ctrls1.bw_write::ruby.dir_cntrl1        81703                       # Write bandwidth from this memory (bytes/s)
system.mem_ctrls1.bw_write::total               81703                       # Write bandwidth from this memory (bytes/s)
system.mem_ctrls1.bw_total::ruby.dir_cntrl1       301092                       # Total bandwidth to/from this memory (bytes/s)
system.mem_ctrls1.bw_total::total              301092                       # Total bandwidth to/from this memory (bytes/s)
system.mem_ctrls1.readReqs                       1740                       # Number of read requests accepted
system.mem_ctrls1.writeReqs                       648                       # Number of write requests accepted
system.mem_ctrls1.readBursts                     1740                       # Number of DRAM read bursts, including those serviced by the write queue
system.mem_ctrls1.writeBursts                     648                       # Number of DRAM write bursts, including those merged in the write queue
system.mem_ctrls1.bytesReadDRAM                110080                       # Total number of bytes read from DRAM
system.mem_ctrls1.bytesReadWrQ                   1280                       # Total number of bytes read from write queue
system.mem_ctrls1.bytesWritten                  40384                       # Total number of bytes written to DRAM
system.mem_ctrls1.bytesReadSys                 111360                       # Total read bytes from the system interface side
system.mem_ctrls1.bytesWrittenSys               41472                       # Total written bytes from the system interface side
system.mem_ctrls1.servicedByWrQ                    20                       # Number of DRAM read bursts serviced by the write queue
system.mem_ctrls1.mergedWrBursts                    0                       # Number of DRAM write bursts merged with an existing one
system.mem_ctrls1.neitherReadNorWriteReqs            0                       # Number of requests that are neither read nor write
system.mem_ctrls1.perBankRdBursts::0               68                       # Per bank write bursts
system.mem_ctrls1.perBankRdBursts::1               47                       # Per bank write bursts
system.mem_ctrls1.perBankRdBursts::2              123                       # Per bank write bursts
system.mem_ctrls1.perBankRdBursts::3              114                       # Per bank write bursts
system.mem_ctrls1.perBankRdBursts::4               55                       # Per bank write bursts
system.mem_ctrls1.perBankRdBursts::5               80                       # Per bank write bursts
system.mem_ctrls1.perBankRdBursts::6               50                       # Per bank write bursts
system.mem_ctrls1.perBankRdBursts::7               86                       # Per bank write bursts
system.mem_ctrls1.perBankRdBursts::8               62                       # Per bank write bursts
system.mem_ctrls1.perBankRdBursts::9              160                       # Per bank write bursts
system.mem_ctrls1.perBankRdBursts::10              63                       # Per bank write bursts
system.mem_ctrls1.perBankRdBursts::11              28                       # Per bank write bursts
system.mem_ctrls1.perBankRdBursts::12             150                       # Per bank write bursts
system.mem_ctrls1.perBankRdBursts::13             242                       # Per bank write bursts
system.mem_ctrls1.perBankRdBursts::14             186                       # Per bank write bursts
system.mem_ctrls1.perBankRdBursts::15             206                       # Per bank write bursts
system.mem_ctrls1.perBankWrBursts::0               98                       # Per bank write bursts
system.mem_ctrls1.perBankWrBursts::1              131                       # Per bank write bursts
system.mem_ctrls1.perBankWrBursts::2               19                       # Per bank write bursts
system.mem_ctrls1.perBankWrBursts::3               16                       # Per bank write bursts
system.mem_ctrls1.perBankWrBursts::4               10                       # Per bank write bursts
system.mem_ctrls1.perBankWrBursts::5               10                       # Per bank write bursts
system.mem_ctrls1.perBankWrBursts::6              128                       # Per bank write bursts
system.mem_ctrls1.perBankWrBursts::7               31                       # Per bank write bursts
system.mem_ctrls1.perBankWrBursts::8               19                       # Per bank write bursts
system.mem_ctrls1.perBankWrBursts::9               20                       # Per bank write bursts
system.mem_ctrls1.perBankWrBursts::10               3                       # Per bank write bursts
system.mem_ctrls1.perBankWrBursts::11               0                       # Per bank write bursts
system.mem_ctrls1.perBankWrBursts::12              44                       # Per bank write bursts
system.mem_ctrls1.perBankWrBursts::13              21                       # Per bank write bursts
system.mem_ctrls1.perBankWrBursts::14              33                       # Per bank write bursts
system.mem_ctrls1.perBankWrBursts::15              48                       # Per bank write bursts
system.mem_ctrls1.numRdRetry                        0                       # Number of times read queue was full causing retry
system.mem_ctrls1.numWrRetry                        0                       # Number of times write queue was full causing retry
system.mem_ctrls1.totGap                 507591586500                       # Total gap between requests
system.mem_ctrls1.readPktSize::0                    0                       # Read request sizes (log2)
system.mem_ctrls1.readPktSize::1                    0                       # Read request sizes (log2)
system.mem_ctrls1.readPktSize::2                    0                       # Read request sizes (log2)
system.mem_ctrls1.readPktSize::3                    0                       # Read request sizes (log2)
system.mem_ctrls1.readPktSize::4                    0                       # Read request sizes (log2)
system.mem_ctrls1.readPktSize::5                    0                       # Read request sizes (log2)
system.mem_ctrls1.readPktSize::6                 1740                       # Read request sizes (log2)
system.mem_ctrls1.writePktSize::0                   0                       # Write request sizes (log2)
system.mem_ctrls1.writePktSize::1                   0                       # Write request sizes (log2)
system.mem_ctrls1.writePktSize::2                   0                       # Write request sizes (log2)
system.mem_ctrls1.writePktSize::3                   0                       # Write request sizes (log2)
system.mem_ctrls1.writePktSize::4                   0                       # Write request sizes (log2)
system.mem_ctrls1.writePktSize::5                   0                       # Write request sizes (log2)
system.mem_ctrls1.writePktSize::6                 648                       # Write request sizes (log2)
system.mem_ctrls1.rdQLenPdf::0                   1715                       # What read queue length does an incoming req see
system.mem_ctrls1.rdQLenPdf::1                      5                       # What read queue length does an incoming req see
system.mem_ctrls1.rdQLenPdf::2                      0                       # What read queue length does an incoming req see
system.mem_ctrls1.rdQLenPdf::3                      0                       # What read queue length does an incoming req see
system.mem_ctrls1.rdQLenPdf::4                      0                       # What read queue length does an incoming req see
system.mem_ctrls1.rdQLenPdf::5                      0                       # What read queue length does an incoming req see
system.mem_ctrls1.rdQLenPdf::6                      0                       # What read queue length does an incoming req see
system.mem_ctrls1.rdQLenPdf::7                      0                       # What read queue length does an incoming req see
system.mem_ctrls1.rdQLenPdf::8                      0                       # What read queue length does an incoming req see
system.mem_ctrls1.rdQLenPdf::9                      0                       # What read queue length does an incoming req see
system.mem_ctrls1.rdQLenPdf::10                     0                       # What read queue length does an incoming req see
system.mem_ctrls1.rdQLenPdf::11                     0                       # What read queue length does an incoming req see
system.mem_ctrls1.rdQLenPdf::12                     0                       # What read queue length does an incoming req see
system.mem_ctrls1.rdQLenPdf::13                     0                       # What read queue length does an incoming req see
system.mem_ctrls1.rdQLenPdf::14                     0                       # What read queue length does an incoming req see
system.mem_ctrls1.rdQLenPdf::15                     0                       # What read queue length does an incoming req see
system.mem_ctrls1.rdQLenPdf::16                     0                       # What read queue length does an incoming req see
system.mem_ctrls1.rdQLenPdf::17                     0                       # What read queue length does an incoming req see
system.mem_ctrls1.rdQLenPdf::18                     0                       # What read queue length does an incoming req see
system.mem_ctrls1.rdQLenPdf::19                     0                       # What read queue length does an incoming req see
system.mem_ctrls1.rdQLenPdf::20                     0                       # What read queue length does an incoming req see
system.mem_ctrls1.rdQLenPdf::21                     0                       # What read queue length does an incoming req see
system.mem_ctrls1.rdQLenPdf::22                     0                       # What read queue length does an incoming req see
system.mem_ctrls1.rdQLenPdf::23                     0                       # What read queue length does an incoming req see
system.mem_ctrls1.rdQLenPdf::24                     0                       # What read queue length does an incoming req see
system.mem_ctrls1.rdQLenPdf::25                     0                       # What read queue length does an incoming req see
system.mem_ctrls1.rdQLenPdf::26                     0                       # What read queue length does an incoming req see
system.mem_ctrls1.rdQLenPdf::27                     0                       # What read queue length does an incoming req see
system.mem_ctrls1.rdQLenPdf::28                     0                       # What read queue length does an incoming req see
system.mem_ctrls1.rdQLenPdf::29                     0                       # What read queue length does an incoming req see
system.mem_ctrls1.rdQLenPdf::30                     0                       # What read queue length does an incoming req see
system.mem_ctrls1.rdQLenPdf::31                     0                       # What read queue length does an incoming req see
system.mem_ctrls1.wrQLenPdf::0                      0                       # What write queue length does an incoming req see
system.mem_ctrls1.wrQLenPdf::1                      0                       # What write queue length does an incoming req see
system.mem_ctrls1.wrQLenPdf::2                      0                       # What write queue length does an incoming req see
system.mem_ctrls1.wrQLenPdf::3                      0                       # What write queue length does an incoming req see
system.mem_ctrls1.wrQLenPdf::4                      0                       # What write queue length does an incoming req see
system.mem_ctrls1.wrQLenPdf::5                      0                       # What write queue length does an incoming req see
system.mem_ctrls1.wrQLenPdf::6                      0                       # What write queue length does an incoming req see
system.mem_ctrls1.wrQLenPdf::7                      0                       # What write queue length does an incoming req see
system.mem_ctrls1.wrQLenPdf::8                      1                       # What write queue length does an incoming req see
system.mem_ctrls1.wrQLenPdf::9                      1                       # What write queue length does an incoming req see
system.mem_ctrls1.wrQLenPdf::10                     1                       # What write queue length does an incoming req see
system.mem_ctrls1.wrQLenPdf::11                     1                       # What write queue length does an incoming req see
system.mem_ctrls1.wrQLenPdf::12                     1                       # What write queue length does an incoming req see
system.mem_ctrls1.wrQLenPdf::13                     1                       # What write queue length does an incoming req see
system.mem_ctrls1.wrQLenPdf::14                     1                       # What write queue length does an incoming req see
system.mem_ctrls1.wrQLenPdf::15                    28                       # What write queue length does an incoming req see
system.mem_ctrls1.wrQLenPdf::16                    29                       # What write queue length does an incoming req see
system.mem_ctrls1.wrQLenPdf::17                    37                       # What write queue length does an incoming req see
system.mem_ctrls1.wrQLenPdf::18                    36                       # What write queue length does an incoming req see
system.mem_ctrls1.wrQLenPdf::19                    39                       # What write queue length does an incoming req see
system.mem_ctrls1.wrQLenPdf::20                    36                       # What write queue length does an incoming req see
system.mem_ctrls1.wrQLenPdf::21                    41                       # What write queue length does an incoming req see
system.mem_ctrls1.wrQLenPdf::22                    36                       # What write queue length does an incoming req see
system.mem_ctrls1.wrQLenPdf::23                    37                       # What write queue length does an incoming req see
system.mem_ctrls1.wrQLenPdf::24                    37                       # What write queue length does an incoming req see
system.mem_ctrls1.wrQLenPdf::25                    37                       # What write queue length does an incoming req see
system.mem_ctrls1.wrQLenPdf::26                    36                       # What write queue length does an incoming req see
system.mem_ctrls1.wrQLenPdf::27                    36                       # What write queue length does an incoming req see
system.mem_ctrls1.wrQLenPdf::28                    35                       # What write queue length does an incoming req see
system.mem_ctrls1.wrQLenPdf::29                    35                       # What write queue length does an incoming req see
system.mem_ctrls1.wrQLenPdf::30                    35                       # What write queue length does an incoming req see
system.mem_ctrls1.wrQLenPdf::31                    35                       # What write queue length does an incoming req see
system.mem_ctrls1.wrQLenPdf::32                    35                       # What write queue length does an incoming req see
system.mem_ctrls1.wrQLenPdf::33                     1                       # What write queue length does an incoming req see
system.mem_ctrls1.wrQLenPdf::34                     0                       # What write queue length does an incoming req see
system.mem_ctrls1.wrQLenPdf::35                     0                       # What write queue length does an incoming req see
system.mem_ctrls1.wrQLenPdf::36                     0                       # What write queue length does an incoming req see
system.mem_ctrls1.wrQLenPdf::37                     0                       # What write queue length does an incoming req see
system.mem_ctrls1.wrQLenPdf::38                     0                       # What write queue length does an incoming req see
system.mem_ctrls1.wrQLenPdf::39                     0                       # What write queue length does an incoming req see
system.mem_ctrls1.wrQLenPdf::40                     0                       # What write queue length does an incoming req see
system.mem_ctrls1.wrQLenPdf::41                     0                       # What write queue length does an incoming req see
system.mem_ctrls1.wrQLenPdf::42                     0                       # What write queue length does an incoming req see
system.mem_ctrls1.wrQLenPdf::43                     0                       # What write queue length does an incoming req see
system.mem_ctrls1.wrQLenPdf::44                     0                       # What write queue length does an incoming req see
system.mem_ctrls1.wrQLenPdf::45                     0                       # What write queue length does an incoming req see
system.mem_ctrls1.wrQLenPdf::46                     0                       # What write queue length does an incoming req see
system.mem_ctrls1.wrQLenPdf::47                     0                       # What write queue length does an incoming req see
system.mem_ctrls1.wrQLenPdf::48                     0                       # What write queue length does an incoming req see
system.mem_ctrls1.wrQLenPdf::49                     0                       # What write queue length does an incoming req see
system.mem_ctrls1.wrQLenPdf::50                     0                       # What write queue length does an incoming req see
system.mem_ctrls1.wrQLenPdf::51                     0                       # What write queue length does an incoming req see
system.mem_ctrls1.wrQLenPdf::52                     0                       # What write queue length does an incoming req see
system.mem_ctrls1.wrQLenPdf::53                     0                       # What write queue length does an incoming req see
system.mem_ctrls1.wrQLenPdf::54                     0                       # What write queue length does an incoming req see
system.mem_ctrls1.wrQLenPdf::55                     0                       # What write queue length does an incoming req see
system.mem_ctrls1.wrQLenPdf::56                     0                       # What write queue length does an incoming req see
system.mem_ctrls1.wrQLenPdf::57                     0                       # What write queue length does an incoming req see
system.mem_ctrls1.wrQLenPdf::58                     0                       # What write queue length does an incoming req see
system.mem_ctrls1.wrQLenPdf::59                     0                       # What write queue length does an incoming req see
system.mem_ctrls1.wrQLenPdf::60                     0                       # What write queue length does an incoming req see
system.mem_ctrls1.wrQLenPdf::61                     0                       # What write queue length does an incoming req see
system.mem_ctrls1.wrQLenPdf::62                     0                       # What write queue length does an incoming req see
system.mem_ctrls1.wrQLenPdf::63                     0                       # What write queue length does an incoming req see
system.mem_ctrls1.bytesPerActivate::samples          936                       # Bytes accessed per row activation
system.mem_ctrls1.bytesPerActivate::mean   160.752137                       # Bytes accessed per row activation
system.mem_ctrls1.bytesPerActivate::gmean   106.197472                       # Bytes accessed per row activation
system.mem_ctrls1.bytesPerActivate::stdev   209.259163                       # Bytes accessed per row activation
system.mem_ctrls1.bytesPerActivate::0-127          588     62.82%     62.82% # Bytes accessed per row activation
system.mem_ctrls1.bytesPerActivate::128-255          189     20.19%     83.01% # Bytes accessed per row activation
system.mem_ctrls1.bytesPerActivate::256-383           79      8.44%     91.45% # Bytes accessed per row activation
system.mem_ctrls1.bytesPerActivate::384-511           19      2.03%     93.48% # Bytes accessed per row activation
system.mem_ctrls1.bytesPerActivate::512-639           10      1.07%     94.55% # Bytes accessed per row activation
system.mem_ctrls1.bytesPerActivate::640-767            7      0.75%     95.30% # Bytes accessed per row activation
system.mem_ctrls1.bytesPerActivate::768-895            7      0.75%     96.05% # Bytes accessed per row activation
system.mem_ctrls1.bytesPerActivate::896-1023            6      0.64%     96.69% # Bytes accessed per row activation
system.mem_ctrls1.bytesPerActivate::1024-1151           31      3.31%    100.00% # Bytes accessed per row activation
system.mem_ctrls1.bytesPerActivate::total          936                       # Bytes accessed per row activation
system.mem_ctrls1.rdPerTurnAround::samples           35                       # Reads before turning the bus around for writes
system.mem_ctrls1.rdPerTurnAround::mean    153.657143                       # Reads before turning the bus around for writes
system.mem_ctrls1.rdPerTurnAround::stdev   682.886949                       # Reads before turning the bus around for writes
system.mem_ctrls1.rdPerTurnAround::0-127           30     85.71%     85.71% # Reads before turning the bus around for writes
system.mem_ctrls1.rdPerTurnAround::128-255            3      8.57%     94.29% # Reads before turning the bus around for writes
system.mem_ctrls1.rdPerTurnAround::384-511            1      2.86%     97.14% # Reads before turning the bus around for writes
system.mem_ctrls1.rdPerTurnAround::3968-4095            1      2.86%    100.00% # Reads before turning the bus around for writes
system.mem_ctrls1.rdPerTurnAround::total           35                       # Reads before turning the bus around for writes
system.mem_ctrls1.wrPerTurnAround::samples           35                       # Writes before turning the bus around for reads
system.mem_ctrls1.wrPerTurnAround::mean     18.028571                       # Writes before turning the bus around for reads
system.mem_ctrls1.wrPerTurnAround::gmean    17.977248                       # Writes before turning the bus around for reads
system.mem_ctrls1.wrPerTurnAround::stdev     1.382362                       # Writes before turning the bus around for reads
system.mem_ctrls1.wrPerTurnAround::16               8     22.86%     22.86% # Writes before turning the bus around for reads
system.mem_ctrls1.wrPerTurnAround::18              15     42.86%     65.71% # Writes before turning the bus around for reads
system.mem_ctrls1.wrPerTurnAround::19               9     25.71%     91.43% # Writes before turning the bus around for reads
system.mem_ctrls1.wrPerTurnAround::20               2      5.71%     97.14% # Writes before turning the bus around for reads
system.mem_ctrls1.wrPerTurnAround::22               1      2.86%    100.00% # Writes before turning the bus around for reads
system.mem_ctrls1.wrPerTurnAround::total           35                       # Writes before turning the bus around for reads
system.mem_ctrls1.totQLat                    19528000                       # Total ticks spent queuing
system.mem_ctrls1.totMemAccLat               51778000                       # Total ticks spent from burst creation until serviced by the DRAM
system.mem_ctrls1.totBusLat                   8600000                       # Total ticks spent in databus transfers
system.mem_ctrls1.avgQLat                    11353.49                       # Average queueing delay per DRAM burst
system.mem_ctrls1.avgBusLat                   5000.00                       # Average bus latency per DRAM burst
system.mem_ctrls1.avgMemAccLat               30103.49                       # Average memory access latency per DRAM burst
system.mem_ctrls1.avgRdBW                        0.22                       # Average DRAM read bandwidth in MiByte/s
system.mem_ctrls1.avgWrBW                        0.08                       # Average achieved write bandwidth in MiByte/s
system.mem_ctrls1.avgRdBWSys                     0.22                       # Average system read bandwidth in MiByte/s
system.mem_ctrls1.avgWrBWSys                     0.08                       # Average system write bandwidth in MiByte/s
system.mem_ctrls1.peakBW                     12800.00                       # Theoretical peak bandwidth in MiByte/s
system.mem_ctrls1.busUtil                        0.00                       # Data bus utilization in percentage
system.mem_ctrls1.busUtilRead                    0.00                       # Data bus utilization in percentage for reads
system.mem_ctrls1.busUtilWrite                   0.00                       # Data bus utilization in percentage for writes
system.mem_ctrls1.avgRdQLen                      1.00                       # Average read queue length when enqueuing
system.mem_ctrls1.avgWrQLen                     23.45                       # Average write queue length when enqueuing
system.mem_ctrls1.readRowHits                     885                       # Number of row buffer hits during reads
system.mem_ctrls1.writeRowHits                    530                       # Number of row buffer hits during writes
system.mem_ctrls1.readRowHitRate                51.45                       # Row buffer hit rate for reads
system.mem_ctrls1.writeRowHitRate               81.79                       # Row buffer hit rate for writes
system.mem_ctrls1.avgGap                 212559290.83                       # Average gap between requests
system.mem_ctrls1.pageHitRate                   59.76                       # Row buffer hit rate, read and write combined
system.mem_ctrls1_0.actEnergy                 8036280                       # Energy for activate commands per rank (pJ)
system.mem_ctrls1_0.preEnergy                 4384875                       # Energy for precharge commands per rank (pJ)
system.mem_ctrls1_0.readEnergy               19718400                       # Energy for read commands per rank (pJ)
system.mem_ctrls1_0.writeEnergy               2870640                       # Energy for write commands per rank (pJ)
system.mem_ctrls1_0.refreshEnergy         33394592400                       # Energy for refresh commands per rank (pJ)
system.mem_ctrls1_0.actBackEnergy         12796791840                       # Energy for active background per rank (pJ)
system.mem_ctrls1_0.preBackEnergy        295545355500                       # Energy for precharge background per rank (pJ)
system.mem_ctrls1_0.totalEnergy          341771749935                       # Total energy per rank (pJ)
system.mem_ctrls1_0.averagePower           668.457285                       # Core power per rank (mW)
system.mem_ctrls1_0.memoryStateTime::IDLE 489671851000                       # Time in different power states
system.mem_ctrls1_0.memoryStateTime::REF  16949660000                       # Time in different power states
system.mem_ctrls1_0.memoryStateTime::PRE_PDN            0                       # Time in different power states
system.mem_ctrls1_0.memoryStateTime::ACT    970075500                       # Time in different power states
system.mem_ctrls1_0.memoryStateTime::ACT_PDN            0                       # Time in different power states
system.mem_ctrls1_1.actEnergy                10425240                       # Energy for activate commands per rank (pJ)
system.mem_ctrls1_1.preEnergy                 5688375                       # Energy for precharge commands per rank (pJ)
system.mem_ctrls1_1.readEnergy               22932000                       # Energy for read commands per rank (pJ)
system.mem_ctrls1_1.writeEnergy               1218240                       # Energy for write commands per rank (pJ)
system.mem_ctrls1_1.refreshEnergy         33394592400                       # Energy for refresh commands per rank (pJ)
system.mem_ctrls1_1.actBackEnergy         13101113700                       # Energy for active background per rank (pJ)
system.mem_ctrls1_1.preBackEnergy        295278406500                       # Energy for precharge background per rank (pJ)
system.mem_ctrls1_1.totalEnergy          341814376455                       # Total energy per rank (pJ)
system.mem_ctrls1_1.averagePower           668.540656                       # Core power per rank (mW)
system.mem_ctrls1_1.memoryStateTime::IDLE 489404521500                       # Time in different power states
system.mem_ctrls1_1.memoryStateTime::REF  16949660000                       # Time in different power states
system.mem_ctrls1_1.memoryStateTime::PRE_PDN            0                       # Time in different power states
system.mem_ctrls1_1.memoryStateTime::ACT   1239228500                       # Time in different power states
system.mem_ctrls1_1.memoryStateTime::ACT_PDN            0                       # Time in different power states
system.mem_ctrls2.bytes_read::ruby.dir_cntrl2       110080                       # Number of bytes read from this memory
system.mem_ctrls2.bytes_read::total            110080                       # Number of bytes read from this memory
system.mem_ctrls2.bytes_written::ruby.dir_cntrl2        39808                       # Number of bytes written to this memory
system.mem_ctrls2.bytes_written::total          39808                       # Number of bytes written to this memory
system.mem_ctrls2.num_reads::ruby.dir_cntrl2         1720                       # Number of read requests responded to by this memory
system.mem_ctrls2.num_reads::total               1720                       # Number of read requests responded to by this memory
system.mem_ctrls2.num_writes::ruby.dir_cntrl2          622                       # Number of write requests responded to by this memory
system.mem_ctrls2.num_writes::total               622                       # Number of write requests responded to by this memory
system.mem_ctrls2.bw_read::ruby.dir_cntrl2       216867                       # Total read bandwidth from this memory (bytes/s)
system.mem_ctrls2.bw_read::total               216867                       # Total read bandwidth from this memory (bytes/s)
system.mem_ctrls2.bw_write::ruby.dir_cntrl2        78425                       # Write bandwidth from this memory (bytes/s)
system.mem_ctrls2.bw_write::total               78425                       # Write bandwidth from this memory (bytes/s)
system.mem_ctrls2.bw_total::ruby.dir_cntrl2       295292                       # Total bandwidth to/from this memory (bytes/s)
system.mem_ctrls2.bw_total::total              295292                       # Total bandwidth to/from this memory (bytes/s)
system.mem_ctrls2.readReqs                       1720                       # Number of read requests accepted
system.mem_ctrls2.writeReqs                       622                       # Number of write requests accepted
system.mem_ctrls2.readBursts                     1720                       # Number of DRAM read bursts, including those serviced by the write queue
system.mem_ctrls2.writeBursts                     622                       # Number of DRAM write bursts, including those merged in the write queue
system.mem_ctrls2.bytesReadDRAM                109120                       # Total number of bytes read from DRAM
system.mem_ctrls2.bytesReadWrQ                    960                       # Total number of bytes read from write queue
system.mem_ctrls2.bytesWritten                  38144                       # Total number of bytes written to DRAM
system.mem_ctrls2.bytesReadSys                 110080                       # Total read bytes from the system interface side
system.mem_ctrls2.bytesWrittenSys               39808                       # Total written bytes from the system interface side
system.mem_ctrls2.servicedByWrQ                    15                       # Number of DRAM read bursts serviced by the write queue
system.mem_ctrls2.mergedWrBursts                    0                       # Number of DRAM write bursts merged with an existing one
system.mem_ctrls2.neitherReadNorWriteReqs            0                       # Number of requests that are neither read nor write
system.mem_ctrls2.perBankRdBursts::0               75                       # Per bank write bursts
system.mem_ctrls2.perBankRdBursts::1               53                       # Per bank write bursts
system.mem_ctrls2.perBankRdBursts::2              111                       # Per bank write bursts
system.mem_ctrls2.perBankRdBursts::3              119                       # Per bank write bursts
system.mem_ctrls2.perBankRdBursts::4               47                       # Per bank write bursts
system.mem_ctrls2.perBankRdBursts::5               64                       # Per bank write bursts
system.mem_ctrls2.perBankRdBursts::6               54                       # Per bank write bursts
system.mem_ctrls2.perBankRdBursts::7               86                       # Per bank write bursts
system.mem_ctrls2.perBankRdBursts::8               55                       # Per bank write bursts
system.mem_ctrls2.perBankRdBursts::9              161                       # Per bank write bursts
system.mem_ctrls2.perBankRdBursts::10              58                       # Per bank write bursts
system.mem_ctrls2.perBankRdBursts::11              32                       # Per bank write bursts
system.mem_ctrls2.perBankRdBursts::12             153                       # Per bank write bursts
system.mem_ctrls2.perBankRdBursts::13             245                       # Per bank write bursts
system.mem_ctrls2.perBankRdBursts::14             192                       # Per bank write bursts
system.mem_ctrls2.perBankRdBursts::15             200                       # Per bank write bursts
system.mem_ctrls2.perBankWrBursts::0               98                       # Per bank write bursts
system.mem_ctrls2.perBankWrBursts::1              129                       # Per bank write bursts
system.mem_ctrls2.perBankWrBursts::2               19                       # Per bank write bursts
system.mem_ctrls2.perBankWrBursts::3               16                       # Per bank write bursts
system.mem_ctrls2.perBankWrBursts::4               10                       # Per bank write bursts
system.mem_ctrls2.perBankWrBursts::5                7                       # Per bank write bursts
system.mem_ctrls2.perBankWrBursts::6              128                       # Per bank write bursts
system.mem_ctrls2.perBankWrBursts::7               21                       # Per bank write bursts
system.mem_ctrls2.perBankWrBursts::8               19                       # Per bank write bursts
system.mem_ctrls2.perBankWrBursts::9               16                       # Per bank write bursts
system.mem_ctrls2.perBankWrBursts::10               2                       # Per bank write bursts
system.mem_ctrls2.perBankWrBursts::11               0                       # Per bank write bursts
system.mem_ctrls2.perBankWrBursts::12              37                       # Per bank write bursts
system.mem_ctrls2.perBankWrBursts::13              17                       # Per bank write bursts
system.mem_ctrls2.perBankWrBursts::14              34                       # Per bank write bursts
system.mem_ctrls2.perBankWrBursts::15              43                       # Per bank write bursts
system.mem_ctrls2.numRdRetry                        0                       # Number of times read queue was full causing retry
system.mem_ctrls2.numWrRetry                        0                       # Number of times write queue was full causing retry
system.mem_ctrls2.totGap                 507598833500                       # Total gap between requests
system.mem_ctrls2.readPktSize::0                    0                       # Read request sizes (log2)
system.mem_ctrls2.readPktSize::1                    0                       # Read request sizes (log2)
system.mem_ctrls2.readPktSize::2                    0                       # Read request sizes (log2)
system.mem_ctrls2.readPktSize::3                    0                       # Read request sizes (log2)
system.mem_ctrls2.readPktSize::4                    0                       # Read request sizes (log2)
system.mem_ctrls2.readPktSize::5                    0                       # Read request sizes (log2)
system.mem_ctrls2.readPktSize::6                 1720                       # Read request sizes (log2)
system.mem_ctrls2.writePktSize::0                   0                       # Write request sizes (log2)
system.mem_ctrls2.writePktSize::1                   0                       # Write request sizes (log2)
system.mem_ctrls2.writePktSize::2                   0                       # Write request sizes (log2)
system.mem_ctrls2.writePktSize::3                   0                       # Write request sizes (log2)
system.mem_ctrls2.writePktSize::4                   0                       # Write request sizes (log2)
system.mem_ctrls2.writePktSize::5                   0                       # Write request sizes (log2)
system.mem_ctrls2.writePktSize::6                 622                       # Write request sizes (log2)
system.mem_ctrls2.rdQLenPdf::0                   1700                       # What read queue length does an incoming req see
system.mem_ctrls2.rdQLenPdf::1                      5                       # What read queue length does an incoming req see
system.mem_ctrls2.rdQLenPdf::2                      0                       # What read queue length does an incoming req see
system.mem_ctrls2.rdQLenPdf::3                      0                       # What read queue length does an incoming req see
system.mem_ctrls2.rdQLenPdf::4                      0                       # What read queue length does an incoming req see
system.mem_ctrls2.rdQLenPdf::5                      0                       # What read queue length does an incoming req see
system.mem_ctrls2.rdQLenPdf::6                      0                       # What read queue length does an incoming req see
system.mem_ctrls2.rdQLenPdf::7                      0                       # What read queue length does an incoming req see
system.mem_ctrls2.rdQLenPdf::8                      0                       # What read queue length does an incoming req see
system.mem_ctrls2.rdQLenPdf::9                      0                       # What read queue length does an incoming req see
system.mem_ctrls2.rdQLenPdf::10                     0                       # What read queue length does an incoming req see
system.mem_ctrls2.rdQLenPdf::11                     0                       # What read queue length does an incoming req see
system.mem_ctrls2.rdQLenPdf::12                     0                       # What read queue length does an incoming req see
system.mem_ctrls2.rdQLenPdf::13                     0                       # What read queue length does an incoming req see
system.mem_ctrls2.rdQLenPdf::14                     0                       # What read queue length does an incoming req see
system.mem_ctrls2.rdQLenPdf::15                     0                       # What read queue length does an incoming req see
system.mem_ctrls2.rdQLenPdf::16                     0                       # What read queue length does an incoming req see
system.mem_ctrls2.rdQLenPdf::17                     0                       # What read queue length does an incoming req see
system.mem_ctrls2.rdQLenPdf::18                     0                       # What read queue length does an incoming req see
system.mem_ctrls2.rdQLenPdf::19                     0                       # What read queue length does an incoming req see
system.mem_ctrls2.rdQLenPdf::20                     0                       # What read queue length does an incoming req see
system.mem_ctrls2.rdQLenPdf::21                     0                       # What read queue length does an incoming req see
system.mem_ctrls2.rdQLenPdf::22                     0                       # What read queue length does an incoming req see
system.mem_ctrls2.rdQLenPdf::23                     0                       # What read queue length does an incoming req see
system.mem_ctrls2.rdQLenPdf::24                     0                       # What read queue length does an incoming req see
system.mem_ctrls2.rdQLenPdf::25                     0                       # What read queue length does an incoming req see
system.mem_ctrls2.rdQLenPdf::26                     0                       # What read queue length does an incoming req see
system.mem_ctrls2.rdQLenPdf::27                     0                       # What read queue length does an incoming req see
system.mem_ctrls2.rdQLenPdf::28                     0                       # What read queue length does an incoming req see
system.mem_ctrls2.rdQLenPdf::29                     0                       # What read queue length does an incoming req see
system.mem_ctrls2.rdQLenPdf::30                     0                       # What read queue length does an incoming req see
system.mem_ctrls2.rdQLenPdf::31                     0                       # What read queue length does an incoming req see
system.mem_ctrls2.wrQLenPdf::0                      0                       # What write queue length does an incoming req see
system.mem_ctrls2.wrQLenPdf::1                      0                       # What write queue length does an incoming req see
system.mem_ctrls2.wrQLenPdf::2                      1                       # What write queue length does an incoming req see
system.mem_ctrls2.wrQLenPdf::3                      1                       # What write queue length does an incoming req see
system.mem_ctrls2.wrQLenPdf::4                      1                       # What write queue length does an incoming req see
system.mem_ctrls2.wrQLenPdf::5                      1                       # What write queue length does an incoming req see
system.mem_ctrls2.wrQLenPdf::6                      1                       # What write queue length does an incoming req see
system.mem_ctrls2.wrQLenPdf::7                      1                       # What write queue length does an incoming req see
system.mem_ctrls2.wrQLenPdf::8                      1                       # What write queue length does an incoming req see
system.mem_ctrls2.wrQLenPdf::9                      1                       # What write queue length does an incoming req see
system.mem_ctrls2.wrQLenPdf::10                     1                       # What write queue length does an incoming req see
system.mem_ctrls2.wrQLenPdf::11                     1                       # What write queue length does an incoming req see
system.mem_ctrls2.wrQLenPdf::12                     1                       # What write queue length does an incoming req see
system.mem_ctrls2.wrQLenPdf::13                     1                       # What write queue length does an incoming req see
system.mem_ctrls2.wrQLenPdf::14                     1                       # What write queue length does an incoming req see
system.mem_ctrls2.wrQLenPdf::15                    29                       # What write queue length does an incoming req see
system.mem_ctrls2.wrQLenPdf::16                    34                       # What write queue length does an incoming req see
system.mem_ctrls2.wrQLenPdf::17                    34                       # What write queue length does an incoming req see
system.mem_ctrls2.wrQLenPdf::18                    34                       # What write queue length does an incoming req see
system.mem_ctrls2.wrQLenPdf::19                    37                       # What write queue length does an incoming req see
system.mem_ctrls2.wrQLenPdf::20                    35                       # What write queue length does an incoming req see
system.mem_ctrls2.wrQLenPdf::21                    36                       # What write queue length does an incoming req see
system.mem_ctrls2.wrQLenPdf::22                    34                       # What write queue length does an incoming req see
system.mem_ctrls2.wrQLenPdf::23                    34                       # What write queue length does an incoming req see
system.mem_ctrls2.wrQLenPdf::24                    35                       # What write queue length does an incoming req see
system.mem_ctrls2.wrQLenPdf::25                    34                       # What write queue length does an incoming req see
system.mem_ctrls2.wrQLenPdf::26                    34                       # What write queue length does an incoming req see
system.mem_ctrls2.wrQLenPdf::27                    34                       # What write queue length does an incoming req see
system.mem_ctrls2.wrQLenPdf::28                    33                       # What write queue length does an incoming req see
system.mem_ctrls2.wrQLenPdf::29                    33                       # What write queue length does an incoming req see
system.mem_ctrls2.wrQLenPdf::30                    33                       # What write queue length does an incoming req see
system.mem_ctrls2.wrQLenPdf::31                    33                       # What write queue length does an incoming req see
system.mem_ctrls2.wrQLenPdf::32                    33                       # What write queue length does an incoming req see
system.mem_ctrls2.wrQLenPdf::33                     0                       # What write queue length does an incoming req see
system.mem_ctrls2.wrQLenPdf::34                     0                       # What write queue length does an incoming req see
system.mem_ctrls2.wrQLenPdf::35                     0                       # What write queue length does an incoming req see
system.mem_ctrls2.wrQLenPdf::36                     0                       # What write queue length does an incoming req see
system.mem_ctrls2.wrQLenPdf::37                     0                       # What write queue length does an incoming req see
system.mem_ctrls2.wrQLenPdf::38                     0                       # What write queue length does an incoming req see
system.mem_ctrls2.wrQLenPdf::39                     0                       # What write queue length does an incoming req see
system.mem_ctrls2.wrQLenPdf::40                     0                       # What write queue length does an incoming req see
system.mem_ctrls2.wrQLenPdf::41                     0                       # What write queue length does an incoming req see
system.mem_ctrls2.wrQLenPdf::42                     0                       # What write queue length does an incoming req see
system.mem_ctrls2.wrQLenPdf::43                     0                       # What write queue length does an incoming req see
[...]
system.ruby.L1Cache_Controller.Data_Exclusive::total       474901                      
system.ruby.L1Cache_Controller.DataS_fromL1 |        1748     22.44%     22.44% |        1550     19.90%     42.35% |        1994     25.60%     67.95% |        2496     32.05%    100.00%
system.ruby.L1Cache_Controller.DataS_fromL1::total         7788                      
system.ruby.L1Cache_Controller.Data_all_Acks |       27171     12.83%     12.83% |       90683     42.83%     55.67% |       39400     18.61%     74.28% |       54461     25.72%    100.00%
system.ruby.L1Cache_Controller.Data_all_Acks::total       211715                      
system.ruby.L1Cache_Controller.L0_Ack    |       18789     12.43%     12.43% |       63228     41.84%     54.27% |       28681     18.98%     73.25% |       40435     26.75%    100.00%
system.ruby.L1Cache_Controller.L0_Ack::total       151133                      
system.ruby.L1Cache_Controller.Ack       |        3194     42.95%     42.95% |        1544     20.76%     63.72% |        1275     17.15%     80.86% |        1423     19.14%    100.00%
system.ruby.L1Cache_Controller.Ack::total         7436                      
system.ruby.L1Cache_Controller.Ack_all   |        1805     32.22%     32.22% |        1215     21.69%     53.91% |        1111     19.83%     73.74% |        1471     26.26%    100.00%
system.ruby.L1Cache_Controller.Ack_all::total         5602                      
system.ruby.L1Cache_Controller.WB_Ack    |       29571      5.31%      5.31% |      385173     69.23%     74.54% |       54716      9.83%     84.38% |       86936     15.62%    100.00%
system.ruby.L1Cache_Controller.WB_Ack::total       556396                      
system.ruby.L1Cache_Controller.I.Load    |       38988      6.41%      6.41% |      397454     65.34%     71.75% |       70401     11.57%     83.33% |      101410     16.67%    100.00%
system.ruby.L1Cache_Controller.I.Load::total       608253                      
system.ruby.L1Cache_Controller.I.Store   |       10685     12.24%     12.24% |       40615     46.51%     58.74% |       13564     15.53%     74.28% |       22464     25.72%    100.00%
system.ruby.L1Cache_Controller.I.Store::total        87328                      
system.ruby.L1Cache_Controller.I.Inv     |        1284     22.86%     22.86% |        1296     23.07%     45.93% |        1432     25.49%     71.43% |        1605     28.57%    100.00%
system.ruby.L1Cache_Controller.I.Inv::total         5617                      
system.ruby.L1Cache_Controller.S.Load    |       60397      2.07%      2.07% |     2674756     91.79%     93.86% |       83089      2.85%     96.72% |       95684      3.28%    100.00%
system.ruby.L1Cache_Controller.S.Load::total      2913926                      
system.ruby.L1Cache_Controller.S.Store   |        1260     30.85%     30.85% |         884     21.65%     52.50% |         970     23.75%     76.25% |         970     23.75%    100.00%
system.ruby.L1Cache_Controller.S.Store::total         4084                      
system.ruby.L1Cache_Controller.S.L0_Invalidate_Own |       17600     13.85%     13.85% |       50206     39.52%     53.38% |       26103     20.55%     73.92% |       33128     26.08%    100.00%
system.ruby.L1Cache_Controller.S.L0_Invalidate_Own::total       127037                      
system.ruby.L1Cache_Controller.S.L0_Invalidate_Else |         455     13.72%     13.72% |         785     23.67%     37.39% |        1198     36.13%     73.52% |         878     26.48%    100.00%
system.ruby.L1Cache_Controller.S.L0_Invalidate_Else::total         3316                      
system.ruby.L1Cache_Controller.SS.Load   |         672     46.99%     46.99% |         141      9.86%     56.85% |         242     16.92%     73.78% |         375     26.22%    100.00%
system.ruby.L1Cache_Controller.SS.Load::total         1430                      
system.ruby.L1Cache_Controller.SS.Store  |         191     56.01%     56.01% |          34      9.97%     65.98% |          27      7.92%     73.90% |          89     26.10%    100.00%
system.ruby.L1Cache_Controller.SS.Store::total          341                      
system.ruby.L1Cache_Controller.SS.Inv    |        1149     17.98%     17.98% |        1389     21.73%     39.71% |        1763     27.58%     67.29% |        2091     32.71%    100.00%
system.ruby.L1Cache_Controller.SS.Inv::total         6392                      
system.ruby.L1Cache_Controller.SS.L1_Replacement |       18237     14.00%     14.00% |       51035     39.19%     53.20% |       26993     20.73%     73.93% |       33953     26.07%    100.00%
system.ruby.L1Cache_Controller.SS.L1_Replacement::total       130218                      
system.ruby.L1Cache_Controller.E.WriteBack |       20127      4.32%      4.32% |      342792     73.60%     77.92% |       41724      8.96%     86.87% |       61136     13.13%    100.00%
system.ruby.L1Cache_Controller.E.WriteBack::total       465779                      
system.ruby.L1Cache_Controller.E.L0_Invalidate_Own |         178      2.05%      2.05% |        2661     30.65%     32.70% |         645      7.43%     40.12% |        5199     59.88%    100.00%
system.ruby.L1Cache_Controller.E.L0_Invalidate_Own::total         8683                      
system.ruby.L1Cache_Controller.E.L0_Invalidate_Else |          79     18.04%     18.04% |          88     20.09%     38.13% |          85     19.41%     57.53% |         186     42.47%    100.00%
system.ruby.L1Cache_Controller.E.L0_Invalidate_Else::total          438                      
system.ruby.L1Cache_Controller.EE.Inv    |           0      0.00%      0.00% |           1     50.00%     50.00% |           1     50.00%    100.00% |           0      0.00%    100.00%
system.ruby.L1Cache_Controller.EE.Inv::total            2                      
system.ruby.L1Cache_Controller.EE.L1_Replacement |         161      1.92%      1.92% |        2608     31.17%     33.09% |         564      6.74%     39.84% |        5034     60.16%    100.00%
system.ruby.L1Cache_Controller.EE.L1_Replacement::total         8367                      
system.ruby.L1Cache_Controller.EE.Fwd_GETX |           3     15.79%     15.79% |           1      5.26%     21.05% |           8     42.11%     63.16% |           7     36.84%    100.00%
system.ruby.L1Cache_Controller.EE.Fwd_GETX::total           19                      
system.ruby.L1Cache_Controller.EE.Fwd_GETS |          59     18.44%     18.44% |          56     17.50%     35.94% |          60     18.75%     54.69% |         145     45.31%    100.00%
system.ruby.L1Cache_Controller.EE.Fwd_GETS::total          320                      
system.ruby.L1Cache_Controller.M.WriteBack |       64493      0.33%      0.33% |    18495931     94.87%     95.20% |      104374      0.54%     95.74% |      830764      4.26%    100.00%
system.ruby.L1Cache_Controller.M.WriteBack::total     19495562                      
system.ruby.L1Cache_Controller.M.L0_Invalidate_Own |         790      5.34%      5.34% |       10098     68.25%     73.59% |        1547     10.46%     84.04% |        2361     15.96%    100.00%
system.ruby.L1Cache_Controller.M.L0_Invalidate_Own::total        14796                      
system.ruby.L1Cache_Controller.M.L0_Invalidate_Else |         619     38.26%     38.26% |         267     16.50%     54.76% |         306     18.91%     73.67% |         426     26.33%    100.00%
system.ruby.L1Cache_Controller.M.L0_Invalidate_Else::total         1618                      
system.ruby.L1Cache_Controller.MM.Load   |       40928      0.22%      0.22% |    18149126     95.56%     95.78% |       69796      0.37%     96.14% |      732452      3.86%    100.00%
system.ruby.L1Cache_Controller.MM.Load::total     18992302                      
system.ruby.L1Cache_Controller.MM.Store  |       12857      3.00%      3.00% |      315632     73.76%     76.76% |       21867      5.11%     81.87% |       77560     18.13%    100.00%
system.ruby.L1Cache_Controller.MM.Store::total       427916                      
system.ruby.L1Cache_Controller.MM.Inv    |         110     23.06%     23.06% |         124     26.00%     49.06% |         120     25.16%     74.21% |         123     25.79%    100.00%
system.ruby.L1Cache_Controller.MM.Inv::total          477                      
system.ruby.L1Cache_Controller.MM.L1_Replacement |       29410      5.37%      5.37% |      382565     69.81%     75.17% |       54152      9.88%     85.06% |       81902     14.94%    100.00%
system.ruby.L1Cache_Controller.MM.L1_Replacement::total       548029                      
system.ruby.L1Cache_Controller.MM.Fwd_GETX |         404     19.54%     19.54% |         403     19.49%     39.02% |         393     19.00%     58.03% |         868     41.97%    100.00%
system.ruby.L1Cache_Controller.MM.Fwd_GETX::total         2068                      
system.ruby.L1Cache_Controller.MM.Fwd_GETS |        1914     25.63%     25.63% |        1586     21.24%     46.87% |        1572     21.05%     67.93% |        2395     32.07%    100.00%
system.ruby.L1Cache_Controller.MM.Fwd_GETS::total         7467                      
system.ruby.L1Cache_Controller.IS.Data_Exclusive |       20400      4.30%      4.30% |      345539     72.76%     77.06% |       42457      8.94%     86.00% |       66505     14.00%    100.00%
system.ruby.L1Cache_Controller.IS.Data_Exclusive::total       474901                      
system.ruby.L1Cache_Controller.IS.DataS_fromL1 |        1748     22.44%     22.44% |        1550     19.90%     42.35% |        1994     25.60%     67.95% |        2496     32.05%    100.00%
system.ruby.L1Cache_Controller.IS.DataS_fromL1::total         7788                      
system.ruby.L1Cache_Controller.IS.Data_all_Acks |       16840     13.41%     13.41% |       50365     40.11%     53.52% |       25950     20.67%     74.19% |       32409     25.81%    100.00%
system.ruby.L1Cache_Controller.IS.Data_all_Acks::total       125564                      
system.ruby.L1Cache_Controller.IM.Data   |         354     30.08%     30.08% |         297     25.23%     55.31% |         114      9.69%     65.00% |         412     35.00%    100.00%
system.ruby.L1Cache_Controller.IM.Data::total         1177                      
system.ruby.L1Cache_Controller.IM.Data_all_Acks |       10331     11.99%     11.99% |       40318     46.80%     58.79% |       13450     15.61%     74.40% |       22052     25.60%    100.00%
system.ruby.L1Cache_Controller.IM.Data_all_Acks::total        86151                      
system.ruby.L1Cache_Controller.SM.Ack    |        3194     42.95%     42.95% |        1544     20.76%     63.72% |        1275     17.15%     80.86% |        1423     19.14%    100.00%
system.ruby.L1Cache_Controller.SM.Ack::total         7436                      
system.ruby.L1Cache_Controller.SM.Ack_all |        1805     32.22%     32.22% |        1215     21.69%     53.91% |        1111     19.83%     73.74% |        1471     26.26%    100.00%
system.ruby.L1Cache_Controller.SM.Ack_all::total         5602                      
system.ruby.L1Cache_Controller.M_I.Fwd_GETS |           0      0.00%      0.00% |           0      0.00%      0.00% |           0      0.00%      0.00% |           1    100.00%    100.00%
system.ruby.L1Cache_Controller.M_I.Fwd_GETS::total            1                      
system.ruby.L1Cache_Controller.M_I.WB_Ack |       29571      5.31%      5.31% |      385173     69.23%     74.54% |       54716      9.83%     84.38% |       86935     15.62%    100.00%
system.ruby.L1Cache_Controller.M_I.WB_Ack::total       556395                      
system.ruby.L1Cache_Controller.SINK_WB_ACK.WB_Ack |           0      0.00%      0.00% |           0      0.00%      0.00% |           0      0.00%      0.00% |           1    100.00%    100.00%
system.ruby.L1Cache_Controller.SINK_WB_ACK.WB_Ack::total            1                      
system.ruby.L1Cache_Controller.S_IL0.L0_Invalidate_Own |       17600     13.85%     13.85% |       50206     39.52%     53.38% |       26103     20.55%     73.92% |       33128     26.08%    100.00%
system.ruby.L1Cache_Controller.S_IL0.L0_Invalidate_Own::total       127037                      
system.ruby.L1Cache_Controller.S_IL0.L0_Invalidate_Else |         455     13.72%     13.72% |         785     23.67%     37.39% |        1198     36.13%     73.52% |         878     26.48%    100.00%
system.ruby.L1Cache_Controller.S_IL0.L0_Invalidate_Else::total         3316                      
system.ruby.L1Cache_Controller.S_IL0.L0_Ack |       18055     13.85%     13.85% |       50991     39.12%     52.97% |       27301     20.94%     73.91% |       34006     26.09%    100.00%
system.ruby.L1Cache_Controller.S_IL0.L0_Ack::total       130353                      
system.ruby.L1Cache_Controller.E_IL0.L0_DataAck |          34      8.23%      8.23% |          83     20.10%     28.33% |          97     23.49%     51.82% |         199     48.18%    100.00%
system.ruby.L1Cache_Controller.E_IL0.L0_DataAck::total          413                      
system.ruby.L1Cache_Controller.E_IL0.L0_Invalidate_Own |         178      2.05%      2.05% |        2661     30.65%     32.70% |         645      7.43%     40.12% |        5199     59.88%    100.00%
system.ruby.L1Cache_Controller.E_IL0.L0_Invalidate_Own::total         8683                      
system.ruby.L1Cache_Controller.E_IL0.L0_Invalidate_Else |          79     18.04%     18.04% |          88     20.09%     38.13% |          85     19.41%     57.53% |         186     42.47%    100.00%
system.ruby.L1Cache_Controller.E_IL0.L0_Invalidate_Else::total          438                      
system.ruby.L1Cache_Controller.E_IL0.L0_Ack |         223      2.56%      2.56% |        2666     30.62%     33.18% |         633      7.27%     40.45% |        5186     59.55%    100.00%
system.ruby.L1Cache_Controller.E_IL0.L0_Ack::total         8708                      
system.ruby.L1Cache_Controller.M_IL0.L0_DataAck |         898     20.68%     20.68% |         794     18.29%     38.97% |        1106     25.47%     64.44% |        1544     35.56%    100.00%
system.ruby.L1Cache_Controller.M_IL0.L0_DataAck::total         4342                      
system.ruby.L1Cache_Controller.M_IL0.L0_Invalidate_Own |         790      5.34%      5.34% |       10098     68.25%     73.59% |        1547     10.46%     84.04% |        2361     15.96%    100.00%
system.ruby.L1Cache_Controller.M_IL0.L0_Invalidate_Own::total        14796                      
system.ruby.L1Cache_Controller.M_IL0.L0_Invalidate_Else |         619     38.26%     38.26% |         267     16.50%     54.76% |         306     18.91%     73.67% |         426     26.33%    100.00%
system.ruby.L1Cache_Controller.M_IL0.L0_Invalidate_Else::total         1618                      
system.ruby.L1Cache_Controller.M_IL0.L0_Ack |         511      4.23%      4.23% |        9571     79.28%     83.52% |         747      6.19%     89.70% |        1243     10.30%    100.00%
system.ruby.L1Cache_Controller.M_IL0.L0_Ack::total        12072                      
system.ruby.L2Cache_Controller.L1_GETS         608296      0.00%      0.00%
system.ruby.L2Cache_Controller.L1_GETX          87329      0.00%      0.00%
system.ruby.L2Cache_Controller.L1_UPGRADE         4425      0.00%      0.00%
system.ruby.L2Cache_Controller.L1_PUTX         556397      0.00%      0.00%
system.ruby.L2Cache_Controller.L2_Replacement        13966      0.00%      0.00%
system.ruby.L2Cache_Controller.L2_Replacement_clean        12197      0.00%      0.00%
system.ruby.L2Cache_Controller.Mem_Data         43406      0.00%      0.00%
system.ruby.L2Cache_Controller.Mem_Ack          26169      0.00%      0.00%
system.ruby.L2Cache_Controller.WB_Data           3874      0.00%      0.00%
system.ruby.L2Cache_Controller.WB_Data_clean         4391      0.00%      0.00%
system.ruby.L2Cache_Controller.Ack               2155      0.00%      0.00%
system.ruby.L2Cache_Controller.Ack_all           1243      0.00%      0.00%
system.ruby.L2Cache_Controller.Unblock           7788      0.00%      0.00%
system.ruby.L2Cache_Controller.Exclusive_Unblock       566654      0.00%      0.00%
system.ruby.L2Cache_Controller.MEM_Inv             12      0.00%      0.00%
system.ruby.L2Cache_Controller.NP.L1_GETS        26196      0.00%      0.00%
system.ruby.L2Cache_Controller.NP.L1_GETX        17210      0.00%      0.00%
system.ruby.L2Cache_Controller.SS.L1_GETS       125552      0.00%      0.00%
system.ruby.L2Cache_Controller.SS.L1_GETX         1177      0.00%      0.00%
system.ruby.L2Cache_Controller.SS.L1_UPGRADE         4425      0.00%      0.00%
system.ruby.L2Cache_Controller.SS.L1_PUTX            1      0.00%      0.00%
system.ruby.L2Cache_Controller.SS.L2_Replacement          226      0.00%      0.00%
system.ruby.L2Cache_Controller.SS.L2_Replacement_clean         1015      0.00%      0.00%
system.ruby.L2Cache_Controller.M.L1_GETS       448711      0.00%      0.00%
system.ruby.L2Cache_Controller.M.L1_GETX        66854      0.00%      0.00%
system.ruby.L2Cache_Controller.M.L2_Replacement        13541      0.00%      0.00%
system.ruby.L2Cache_Controller.M.L2_Replacement_clean        10908      0.00%      0.00%
system.ruby.L2Cache_Controller.MT.L1_GETS         7788      0.00%      0.00%
system.ruby.L2Cache_Controller.MT.L1_GETX         2087      0.00%      0.00%
system.ruby.L2Cache_Controller.MT.L1_PUTX       556395      0.00%      0.00%
system.ruby.L2Cache_Controller.MT.L2_Replacement          199      0.00%      0.00%
system.ruby.L2Cache_Controller.MT.L2_Replacement_clean          274      0.00%      0.00%
system.ruby.L2Cache_Controller.MT.MEM_Inv            6      0.00%      0.00%
system.ruby.L2Cache_Controller.M_I.Mem_Ack        26169      0.00%      0.00%
system.ruby.L2Cache_Controller.MT_I.WB_Data          145      0.00%      0.00%
system.ruby.L2Cache_Controller.MT_I.WB_Data_clean           59      0.00%      0.00%
system.ruby.L2Cache_Controller.MT_I.Ack_all            1      0.00%      0.00%
system.ruby.L2Cache_Controller.MT_I.MEM_Inv            6      0.00%      0.00%
system.ruby.L2Cache_Controller.MCT_I.WB_Data          124      0.00%      0.00%
system.ruby.L2Cache_Controller.MCT_I.WB_Data_clean          149      0.00%      0.00%
system.ruby.L2Cache_Controller.MCT_I.Ack_all            1      0.00%      0.00%
system.ruby.L2Cache_Controller.I_I.Ack           1911      0.00%      0.00%
system.ruby.L2Cache_Controller.I_I.Ack_all         1015      0.00%      0.00%
system.ruby.L2Cache_Controller.S_I.Ack            244      0.00%      0.00%
system.ruby.L2Cache_Controller.S_I.Ack_all          226      0.00%      0.00%
system.ruby.L2Cache_Controller.ISS.L1_GETS            6      0.00%      0.00%
system.ruby.L2Cache_Controller.ISS.Mem_Data        26190      0.00%      0.00%
system.ruby.L2Cache_Controller.IS.Mem_Data            6      0.00%      0.00%
system.ruby.L2Cache_Controller.IM.Mem_Data        17210      0.00%      0.00%
system.ruby.L2Cache_Controller.SS_MB.L1_GETS           27      0.00%      0.00%
system.ruby.L2Cache_Controller.SS_MB.Exclusive_Unblock         5602      0.00%      0.00%
system.ruby.L2Cache_Controller.MT_MB.L1_GETS           16      0.00%      0.00%
system.ruby.L2Cache_Controller.MT_MB.L1_GETX            1      0.00%      0.00%
system.ruby.L2Cache_Controller.MT_MB.Exclusive_Unblock       561052      0.00%      0.00%
system.ruby.L2Cache_Controller.MT_IIB.L1_PUTX            1      0.00%      0.00%
system.ruby.L2Cache_Controller.MT_IIB.WB_Data         3599      0.00%      0.00%
system.ruby.L2Cache_Controller.MT_IIB.WB_Data_clean         4176      0.00%      0.00%
system.ruby.L2Cache_Controller.MT_IIB.Unblock           13      0.00%      0.00%
system.ruby.L2Cache_Controller.MT_IB.WB_Data            6      0.00%      0.00%
system.ruby.L2Cache_Controller.MT_IB.WB_Data_clean            7      0.00%      0.00%
system.ruby.L2Cache_Controller.MT_SB.Unblock         7775      0.00%      0.00%

---------- End Simulation Statistics   ----------
