
---------- Begin Simulation Statistics ----------
sim_seconds                                  3.668808                       # Number of seconds simulated
sim_ticks                                3668807571000                       # Number of ticks simulated
final_tick                               54907514043001                       # Number of ticks from beginning of simulation (restored from checkpoints and never reset)
sim_freq                                 1000000000000                       # Frequency of simulated ticks
host_inst_rate                                 133592                       # Simulator instruction rate (inst/s)
host_op_rate                                   227517                       # Simulator op (including micro ops) rate (op/s)
host_tick_rate                              242528565                       # Simulator tick rate (ticks/s)
host_mem_usage                                1862460                       # Number of bytes of host memory used
host_seconds                                 15127.32                       # Real time elapsed on the host
sim_insts                                  2020881690                       # Number of instructions simulated
sim_ops                                    3441720226                       # Number of ops (including micro ops) simulated
system.voltage_domain.voltage                       1                       # Voltage in Volts
system.clk_domain.clock                          1000                       # Clock period in ticks
system.mem_ctrls.bytes_read::ruby.dir_cntrl0      1252288                       # Number of bytes read from this memory
system.mem_ctrls.bytes_read::total            1252288                       # Number of bytes read from this memory
system.mem_ctrls.bytes_written::ruby.dir_cntrl0       385152                       # Number of bytes written to this memory
system.mem_ctrls.bytes_written::total          385152                       # Number of bytes written to this memory
system.mem_ctrls.num_reads::ruby.dir_cntrl0        19567                       # Number of read requests responded to by this memory
system.mem_ctrls.num_reads::total               19567                       # Number of read requests responded to by this memory
system.mem_ctrls.num_writes::ruby.dir_cntrl0         6018                       # Number of write requests responded to by this memory
system.mem_ctrls.num_writes::total               6018                       # Number of write requests responded to by this memory
system.mem_ctrls.bw_read::ruby.dir_cntrl0       341334                       # Total read bandwidth from this memory (bytes/s)
system.mem_ctrls.bw_read::total                341334                       # Total read bandwidth from this memory (bytes/s)
system.mem_ctrls.bw_write::ruby.dir_cntrl0       104980                       # Write bandwidth from this memory (bytes/s)
system.mem_ctrls.bw_write::total               104980                       # Write bandwidth from this memory (bytes/s)
system.mem_ctrls.bw_total::ruby.dir_cntrl0       446314                       # Total bandwidth to/from this memory (bytes/s)
system.mem_ctrls.bw_total::total               446314                       # Total bandwidth to/from this memory (bytes/s)
system.mem_ctrls.readReqs                       19567                       # Number of read requests accepted
system.mem_ctrls.writeReqs                       6018                       # Number of write requests accepted
system.mem_ctrls.readBursts                     19567                       # Number of DRAM read bursts, including those serviced by the write queue
system.mem_ctrls.writeBursts                     6018                       # Number of DRAM write bursts, including those merged in the write queue
system.mem_ctrls.bytesReadDRAM                1249024                       # Total number of bytes read from DRAM
system.mem_ctrls.bytesReadWrQ                    3264                       # Total number of bytes read from write queue
system.mem_ctrls.bytesWritten                  384576                       # Total number of bytes written to DRAM
system.mem_ctrls.bytesReadSys                 1252288                       # Total read bytes from the system interface side
system.mem_ctrls.bytesWrittenSys               385152                       # Total written bytes from the system interface side
system.mem_ctrls.servicedByWrQ                     51                       # Number of DRAM read bursts serviced by the write queue
system.mem_ctrls.mergedWrBursts                     1                       # Number of DRAM write bursts merged with an existing one
system.mem_ctrls.neitherReadNorWriteReqs            0                       # Number of requests that are neither read nor write
system.mem_ctrls.perBankRdBursts::0              1185                       # Per bank write bursts
system.mem_ctrls.perBankRdBursts::1              1538                       # Per bank write bursts
system.mem_ctrls.perBankRdBursts::2              1562                       # Per bank write bursts
system.mem_ctrls.perBankRdBursts::3              1216                       # Per bank write bursts
system.mem_ctrls.perBankRdBursts::4              1482                       # Per bank write bursts
system.mem_ctrls.perBankRdBursts::5               868                       # Per bank write bursts
system.mem_ctrls.perBankRdBursts::6               929                       # Per bank write bursts
system.mem_ctrls.perBankRdBursts::7              1141                       # Per bank write bursts
system.mem_ctrls.perBankRdBursts::8               964                       # Per bank write bursts
system.mem_ctrls.perBankRdBursts::9              1338                       # Per bank write bursts
system.mem_ctrls.perBankRdBursts::10              985                       # Per bank write bursts
system.mem_ctrls.perBankRdBursts::11             1146                       # Per bank write bursts
system.mem_ctrls.perBankRdBursts::12             1021                       # Per bank write bursts
system.mem_ctrls.perBankRdBursts::13             1041                       # Per bank write bursts
system.mem_ctrls.perBankRdBursts::14             1413                       # Per bank write bursts
system.mem_ctrls.perBankRdBursts::15             1687                       # Per bank write bursts
system.mem_ctrls.perBankWrBursts::0               505                       # Per bank write bursts
system.mem_ctrls.perBankWrBursts::1               714                       # Per bank write bursts
system.mem_ctrls.perBankWrBursts::2               595                       # Per bank write bursts
system.mem_ctrls.perBankWrBursts::3               382                       # Per bank write bursts
system.mem_ctrls.perBankWrBursts::4               825                       # Per bank write bursts
system.mem_ctrls.perBankWrBursts::5               408                       # Per bank write bursts
system.mem_ctrls.perBankWrBursts::6               411                       # Per bank write bursts
system.mem_ctrls.perBankWrBursts::7               260                       # Per bank write bursts
system.mem_ctrls.perBankWrBursts::8               159                       # Per bank write bursts
system.mem_ctrls.perBankWrBursts::9               276                       # Per bank write bursts
system.mem_ctrls.perBankWrBursts::10              254                       # Per bank write bursts
system.mem_ctrls.perBankWrBursts::11              123                       # Per bank write bursts
system.mem_ctrls.perBankWrBursts::12               42                       # Per bank write bursts
system.mem_ctrls.perBankWrBursts::13               74                       # Per bank write bursts
system.mem_ctrls.perBankWrBursts::14              421                       # Per bank write bursts
system.mem_ctrls.perBankWrBursts::15              560                       # Per bank write bursts
system.mem_ctrls.numRdRetry                         0                       # Number of times read queue was full causing retry
system.mem_ctrls.numWrRetry                         0                       # Number of times write queue was full causing retry
system.mem_ctrls.totGap                  3668807506000                       # Total gap between requests
system.mem_ctrls.readPktSize::0                     0                       # Read request sizes (log2)
system.mem_ctrls.readPktSize::1                     0                       # Read request sizes (log2)
system.mem_ctrls.readPktSize::2                     0                       # Read request sizes (log2)
system.mem_ctrls.readPktSize::3                     0                       # Read request sizes (log2)
system.mem_ctrls.readPktSize::4                     0                       # Read request sizes (log2)
system.mem_ctrls.readPktSize::5                     0                       # Read request sizes (log2)
system.mem_ctrls.readPktSize::6                 19567                       # Read request sizes (log2)
system.mem_ctrls.writePktSize::0                    0                       # Write request sizes (log2)
system.mem_ctrls.writePktSize::1                    0                       # Write request sizes (log2)
system.mem_ctrls.writePktSize::2                    0                       # Write request sizes (log2)
system.mem_ctrls.writePktSize::3                    0                       # Write request sizes (log2)
system.mem_ctrls.writePktSize::4                    0                       # Write request sizes (log2)
system.mem_ctrls.writePktSize::5                    0                       # Write request sizes (log2)
system.mem_ctrls.writePktSize::6                 6018                       # Write request sizes (log2)
system.mem_ctrls.rdQLenPdf::0                   19350                       # What read queue length does an incoming req see
system.mem_ctrls.rdQLenPdf::1                     166                       # What read queue length does an incoming req see
system.mem_ctrls.rdQLenPdf::2                       0                       # What read queue length does an incoming req see
system.mem_ctrls.rdQLenPdf::3                       0                       # What read queue length does an incoming req see
system.mem_ctrls.rdQLenPdf::4                       0                       # What read queue length does an incoming req see
system.mem_ctrls.rdQLenPdf::5                       0                       # What read queue length does an incoming req see
system.mem_ctrls.rdQLenPdf::6                       0                       # What read queue length does an incoming req see
system.mem_ctrls.rdQLenPdf::7                       0                       # What read queue length does an incoming req see
system.mem_ctrls.rdQLenPdf::8                       0                       # What read queue length does an incoming req see
system.mem_ctrls.rdQLenPdf::9                       0                       # What read queue length does an incoming req see
system.mem_ctrls.rdQLenPdf::10                      0                       # What read queue length does an incoming req see
system.mem_ctrls.rdQLenPdf::11                      0                       # What read queue length does an incoming req see
system.mem_ctrls.rdQLenPdf::12                      0                       # What read queue length does an incoming req see
system.mem_ctrls.rdQLenPdf::13                      0                       # What read queue length does an incoming req see
system.mem_ctrls.rdQLenPdf::14                      0                       # What read queue length does an incoming req see
system.mem_ctrls.rdQLenPdf::15                      0                       # What read queue length does an incoming req see
system.mem_ctrls.rdQLenPdf::16                      0                       # What read queue length does an incoming req see
system.mem_ctrls.rdQLenPdf::17                      0                       # What read queue length does an incoming req see
system.mem_ctrls.rdQLenPdf::18                      0                       # What read queue length does an incoming req see
system.mem_ctrls.rdQLenPdf::19                      0                       # What read queue length does an incoming req see
system.mem_ctrls.rdQLenPdf::20                      0                       # What read queue length does an incoming req see
system.mem_ctrls.rdQLenPdf::21                      0                       # What read queue length does an incoming req see
system.mem_ctrls.rdQLenPdf::22                      0                       # What read queue length does an incoming req see
system.mem_ctrls.rdQLenPdf::23                      0                       # What read queue length does an incoming req see
system.mem_ctrls.rdQLenPdf::24                      0                       # What read queue length does an incoming req see
system.mem_ctrls.rdQLenPdf::25                      0                       # What read queue length does an incoming req see
system.mem_ctrls.rdQLenPdf::26                      0                       # What read queue length does an incoming req see
system.mem_ctrls.rdQLenPdf::27                      0                       # What read queue length does an incoming req see
system.mem_ctrls.rdQLenPdf::28                      0                       # What read queue length does an incoming req see
system.mem_ctrls.rdQLenPdf::29                      0                       # What read queue length does an incoming req see
system.mem_ctrls.rdQLenPdf::30                      0                       # What read queue length does an incoming req see
system.mem_ctrls.rdQLenPdf::31                      0                       # What read queue length does an incoming req see
system.mem_ctrls.wrQLenPdf::0                       0                       # What write queue length does an incoming req see
system.mem_ctrls.wrQLenPdf::1                       0                       # What write queue length does an incoming req see
system.mem_ctrls.wrQLenPdf::2                       0                       # What write queue length does an incoming req see
system.mem_ctrls.wrQLenPdf::3                       0                       # What write queue length does an incoming req see
system.mem_ctrls.wrQLenPdf::4                       0                       # What write queue length does an incoming req see
system.mem_ctrls.wrQLenPdf::5                       0                       # What write queue length does an incoming req see
system.mem_ctrls.wrQLenPdf::6                       0                       # What write queue length does an incoming req see
system.mem_ctrls.wrQLenPdf::7                       0                       # What write queue length does an incoming req see
system.mem_ctrls.wrQLenPdf::8                       0                       # What write queue length does an incoming req see
system.mem_ctrls.wrQLenPdf::9                       0                       # What write queue length does an incoming req see
system.mem_ctrls.wrQLenPdf::10                      0                       # What write queue length does an incoming req see
system.mem_ctrls.wrQLenPdf::11                      0                       # What write queue length does an incoming req see
system.mem_ctrls.wrQLenPdf::12                      0                       # What write queue length does an incoming req see
system.mem_ctrls.wrQLenPdf::13                      0                       # What write queue length does an incoming req see
system.mem_ctrls.wrQLenPdf::14                      0                       # What write queue length does an incoming req see
system.mem_ctrls.wrQLenPdf::15                    114                       # What write queue length does an incoming req see
system.mem_ctrls.wrQLenPdf::16                    173                       # What write queue length does an incoming req see
system.mem_ctrls.wrQLenPdf::17                    331                       # What write queue length does an incoming req see
system.mem_ctrls.wrQLenPdf::18                    358                       # What write queue length does an incoming req see
system.mem_ctrls.wrQLenPdf::19                    344                       # What write queue length does an incoming req see
system.mem_ctrls.wrQLenPdf::20                    364                       # What write queue length does an incoming req see
system.mem_ctrls.wrQLenPdf::21                    406                       # What write queue length does an incoming req see
system.mem_ctrls.wrQLenPdf::22                    362                       # What write queue length does an incoming req see
system.mem_ctrls.wrQLenPdf::23                    385                       # What write queue length does an incoming req see
system.mem_ctrls.wrQLenPdf::24                    385                       # What write queue length does an incoming req see
system.mem_ctrls.wrQLenPdf::25                    348                       # What write queue length does an incoming req see
system.mem_ctrls.wrQLenPdf::26                    346                       # What write queue length does an incoming req see
system.mem_ctrls.wrQLenPdf::27                    346                       # What write queue length does an incoming req see
system.mem_ctrls.wrQLenPdf::28                    364                       # What write queue length does an incoming req see
system.mem_ctrls.wrQLenPdf::29                    344                       # What write queue length does an incoming req see
system.mem_ctrls.wrQLenPdf::30                    338                       # What write queue length does an incoming req see
system.mem_ctrls.wrQLenPdf::31                    338                       # What write queue length does an incoming req see
system.mem_ctrls.wrQLenPdf::32                    330                       # What write queue length does an incoming req see
system.mem_ctrls.wrQLenPdf::33                      7                       # What write queue length does an incoming req see
system.mem_ctrls.wrQLenPdf::34                      6                       # What write queue length does an incoming req see
system.mem_ctrls.wrQLenPdf::35                      6                       # What write queue length does an incoming req see
system.mem_ctrls.wrQLenPdf::36                      4                       # What write queue length does an incoming req see
system.mem_ctrls.wrQLenPdf::37                      3                       # What write queue length does an incoming req see
system.mem_ctrls.wrQLenPdf::38                      3                       # What write queue length does an incoming req see
system.mem_ctrls.wrQLenPdf::39                      3                       # What write queue length does an incoming req see
system.mem_ctrls.wrQLenPdf::40                      2                       # What write queue length does an incoming req see
system.mem_ctrls.wrQLenPdf::41                      2                       # What write queue length does an incoming req see
system.mem_ctrls.wrQLenPdf::42                      2                       # What write queue length does an incoming req see
system.mem_ctrls.wrQLenPdf::43                      2                       # What write queue length does an incoming req see
system.mem_ctrls.wrQLenPdf::44                      1                       # What write queue length does an incoming req see
system.mem_ctrls.wrQLenPdf::45                      0                       # What write queue length does an incoming req see
system.mem_ctrls.wrQLenPdf::46                      0                       # What write queue length does an incoming req see
system.mem_ctrls.wrQLenPdf::47                      0                       # What write queue length does an incoming req see
system.mem_ctrls.wrQLenPdf::48                      0                       # What write queue length does an incoming req see
system.mem_ctrls.wrQLenPdf::49                      0                       # What write queue length does an incoming req see
system.mem_ctrls.wrQLenPdf::50                      0                       # What write queue length does an incoming req see
system.mem_ctrls.wrQLenPdf::51                      0                       # What write queue length does an incoming req see
system.mem_ctrls.wrQLenPdf::52                      0                       # What write queue length does an incoming req see
system.mem_ctrls.wrQLenPdf::53                      0                       # What write queue length does an incoming req see
system.mem_ctrls.wrQLenPdf::54                      0                       # What write queue length does an incoming req see
system.mem_ctrls.wrQLenPdf::55                      0                       # What write queue length does an incoming req see
system.mem_ctrls.wrQLenPdf::56                      0                       # What write queue length does an incoming req see
system.mem_ctrls.wrQLenPdf::57                      0                       # What write queue length does an incoming req see
system.mem_ctrls.wrQLenPdf::58                      0                       # What write queue length does an incoming req see
system.mem_ctrls.wrQLenPdf::59                      0                       # What write queue length does an incoming req see
system.mem_ctrls.wrQLenPdf::60                      0                       # What write queue length does an incoming req see
system.mem_ctrls.wrQLenPdf::61                      0                       # What write queue length does an incoming req see
system.mem_ctrls.wrQLenPdf::62                      0                       # What write queue length does an incoming req see
system.mem_ctrls.wrQLenPdf::63                      0                       # What write queue length does an incoming req see
system.mem_ctrls.bytesPerActivate::samples         6998                       # Bytes accessed per row activation
system.mem_ctrls.bytesPerActivate::mean    233.456416                       # Bytes accessed per row activation
system.mem_ctrls.bytesPerActivate::gmean   132.884809                       # Bytes accessed per row activation
system.mem_ctrls.bytesPerActivate::stdev   300.703642                       # Bytes accessed per row activation
system.mem_ctrls.bytesPerActivate::0-127         3681     52.60%     52.60% # Bytes accessed per row activation
system.mem_ctrls.bytesPerActivate::128-255         1611     23.02%     75.62% # Bytes accessed per row activation
system.mem_ctrls.bytesPerActivate::256-383          414      5.92%     81.54% # Bytes accessed per row activation
system.mem_ctrls.bytesPerActivate::384-511          240      3.43%     84.97% # Bytes accessed per row activation
system.mem_ctrls.bytesPerActivate::512-639          138      1.97%     86.94% # Bytes accessed per row activation
system.mem_ctrls.bytesPerActivate::640-767          114      1.63%     88.57% # Bytes accessed per row activation
system.mem_ctrls.bytesPerActivate::768-895           77      1.10%     89.67% # Bytes accessed per row activation
system.mem_ctrls.bytesPerActivate::896-1023           50      0.71%     90.38% # Bytes accessed per row activation
system.mem_ctrls.bytesPerActivate::1024-1151          673      9.62%    100.00% # Bytes accessed per row activation
system.mem_ctrls.bytesPerActivate::total         6998                       # Bytes accessed per row activation
system.mem_ctrls.rdPerTurnAround::samples          326                       # Reads before turning the bus around for writes
system.mem_ctrls.rdPerTurnAround::mean      60.049080                       # Reads before turning the bus around for writes
system.mem_ctrls.rdPerTurnAround::stdev    113.371129                       # Reads before turning the bus around for writes
system.mem_ctrls.rdPerTurnAround::0-63            237     72.70%     72.70% # Reads before turning the bus around for writes
system.mem_ctrls.rdPerTurnAround::64-127           51     15.64%     88.34% # Reads before turning the bus around for writes
system.mem_ctrls.rdPerTurnAround::128-191           19      5.83%     94.17% # Reads before turning the bus around for writes
system.mem_ctrls.rdPerTurnAround::192-255            4      1.23%     95.40% # Reads before turning the bus around for writes
system.mem_ctrls.rdPerTurnAround::256-319            2      0.61%     96.01% # Reads before turning the bus around for writes
system.mem_ctrls.rdPerTurnAround::320-383            5      1.53%     97.55% # Reads before turning the bus around for writes
system.mem_ctrls.rdPerTurnAround::384-447            3      0.92%     98.47% # Reads before turning the bus around for writes
system.mem_ctrls.rdPerTurnAround::512-575            2      0.61%     99.08% # Reads before turning the bus around for writes
system.mem_ctrls.rdPerTurnAround::640-703            2      0.61%     99.69% # Reads before turning the bus around for writes
system.mem_ctrls.rdPerTurnAround::1088-1151            1      0.31%    100.00% # Reads before turning the bus around for writes
system.mem_ctrls.rdPerTurnAround::total           326                       # Reads before turning the bus around for writes
system.mem_ctrls.wrPerTurnAround::samples          326                       # Writes before turning the bus around for reads
system.mem_ctrls.wrPerTurnAround::mean      18.432515                       # Writes before turning the bus around for reads
system.mem_ctrls.wrPerTurnAround::gmean     18.083146                       # Writes before turning the bus around for reads
system.mem_ctrls.wrPerTurnAround::stdev      4.026839                       # Writes before turning the bus around for reads
system.mem_ctrls.wrPerTurnAround::16              208     63.80%     63.80% # Writes before turning the bus around for reads
system.mem_ctrls.wrPerTurnAround::17                1      0.31%     64.11% # Writes before turning the bus around for reads
system.mem_ctrls.wrPerTurnAround::18                8      2.45%     66.56% # Writes before turning the bus around for reads
system.mem_ctrls.wrPerTurnAround::19                3      0.92%     67.48% # Writes before turning the bus around for reads
system.mem_ctrls.wrPerTurnAround::20               19      5.83%     73.31% # Writes before turning the bus around for reads
system.mem_ctrls.wrPerTurnAround::21               23      7.06%     80.37% # Writes before turning the bus around for reads
system.mem_ctrls.wrPerTurnAround::22               18      5.52%     85.89% # Writes before turning the bus around for reads
system.mem_ctrls.wrPerTurnAround::23                2      0.61%     86.50% # Writes before turning the bus around for reads
system.mem_ctrls.wrPerTurnAround::24               23      7.06%     93.56% # Writes before turning the bus around for reads
system.mem_ctrls.wrPerTurnAround::25                6      1.84%     95.40% # Writes before turning the bus around for reads
system.mem_ctrls.wrPerTurnAround::27                2      0.61%     96.01% # Writes before turning the bus around for reads
system.mem_ctrls.wrPerTurnAround::28               10      3.07%     99.08% # Writes before turning the bus around for reads
system.mem_ctrls.wrPerTurnAround::35                1      0.31%     99.39% # Writes before turning the bus around for reads
system.mem_ctrls.wrPerTurnAround::43                1      0.31%     99.69% # Writes before turning the bus around for reads
system.mem_ctrls.wrPerTurnAround::44                1      0.31%    100.00% # Writes before turning the bus around for reads
system.mem_ctrls.wrPerTurnAround::total           326                       # Writes before turning the bus around for reads
system.mem_ctrls.totQLat                    183644747                       # Total ticks spent queuing
system.mem_ctrls.totMemAccLat               549569747                       # Total ticks spent from burst creation until serviced by the DRAM
system.mem_ctrls.totBusLat                   97580000                       # Total ticks spent in databus transfers
system.mem_ctrls.avgQLat                      9409.96                       # Average queueing delay per DRAM burst
system.mem_ctrls.avgBusLat                    5000.00                       # Average bus latency per DRAM burst
system.mem_ctrls.avgMemAccLat                28159.96                       # Average memory access latency per DRAM burst
system.mem_ctrls.avgRdBW                         0.34                       # Average DRAM read bandwidth in MiByte/s
system.mem_ctrls.avgWrBW                         0.10                       # Average achieved write bandwidth in MiByte/s
system.mem_ctrls.avgRdBWSys                      0.34                       # Average system read bandwidth in MiByte/s
system.mem_ctrls.avgWrBWSys                      0.10                       # Average system write bandwidth in MiByte/s
system.mem_ctrls.peakBW                      12800.00                       # Theoretical peak bandwidth in MiByte/s
system.mem_ctrls.busUtil                         0.00                       # Data bus utilization in percentage
system.mem_ctrls.busUtilRead                     0.00                       # Data bus utilization in percentage for reads
system.mem_ctrls.busUtilWrite                    0.00                       # Data bus utilization in percentage for writes
system.mem_ctrls.avgRdQLen                       1.00                       # Average read queue length when enqueuing
system.mem_ctrls.avgWrQLen                      26.32                       # Average write queue length when enqueuing
system.mem_ctrls.readRowHits                    14295                       # Number of row buffer hits during reads
system.mem_ctrls.writeRowHits                    4233                       # Number of row buffer hits during writes
system.mem_ctrls.readRowHitRate                 73.25                       # Row buffer hit rate for reads
system.mem_ctrls.writeRowHitRate                70.35                       # Row buffer hit rate for writes
system.mem_ctrls.avgGap                  143396814.77                       # Average gap between requests
system.mem_ctrls.pageHitRate                    72.56                       # Row buffer hit rate, read and write combined
system.mem_ctrls_0.actEnergy                 47484360                       # Energy for activate commands per rank (pJ)
system.mem_ctrls_0.preEnergy                 25909125                       # Energy for precharge commands per rank (pJ)
system.mem_ctrls_0.readEnergy               148730400                       # Energy for read commands per rank (pJ)
system.mem_ctrls_0.writeEnergy               26671680                       # Energy for write commands per rank (pJ)
system.mem_ctrls_0.refreshEnergy         239858764080                       # Energy for refresh commands per rank (pJ)
system.mem_ctrls_0.actBackEnergy          83621187090                       # Energy for active background per rank (pJ)
system.mem_ctrls_0.preBackEnergy         2130046422750                       # Energy for precharge background per rank (pJ)
system.mem_ctrls_0.totalEnergy           2453775169485                       # Total energy per rank (pJ)
system.mem_ctrls_0.averagePower            668.179273                       # Core power per rank (mW)
system.mem_ctrls_0.memoryStateTime::IDLE 3542332585500                       # Time in different power states
system.mem_ctrls_0.memoryStateTime::REF  122509660000                       # Time in different power states
system.mem_ctrls_0.memoryStateTime::PRE_PDN            0                       # Time in different power states
system.mem_ctrls_0.memoryStateTime::ACT    3971190750                       # Time in different power states
system.mem_ctrls_0.memoryStateTime::ACT_PDN            0                       # Time in different power states
system.mem_ctrls_1.actEnergy                 36643320                       # Energy for activate commands per rank (pJ)
system.mem_ctrls_1.preEnergy                 19993875                       # Energy for precharge commands per rank (pJ)
system.mem_ctrls_1.readEnergy               124846800                       # Energy for read commands per rank (pJ)
system.mem_ctrls_1.writeEnergy               12370320                       # Energy for write commands per rank (pJ)
system.mem_ctrls_1.refreshEnergy         239858764080                       # Energy for refresh commands per rank (pJ)
system.mem_ctrls_1.actBackEnergy          83404831905                       # Energy for active background per rank (pJ)
system.mem_ctrls_1.preBackEnergy         2130236208000                       # Energy for precharge background per rank (pJ)
system.mem_ctrls_1.totalEnergy           2453693658300                       # Total energy per rank (pJ)
system.mem_ctrls_1.averagePower            668.157077                       # Core power per rank (mW)
system.mem_ctrls_1.memoryStateTime::IDLE 3542364260500                       # Time in different power states
system.mem_ctrls_1.memoryStateTime::REF  122509660000                       # Time in different power states
system.mem_ctrls_1.memoryStateTime::PRE_PDN            0                       # Time in different power states
system.mem_ctrls_1.memoryStateTime::ACT    3937003250                       # Time in different power states
system.mem_ctrls_1.memoryStateTime::ACT_PDN            0                       # Time in different power states
system.cpu_voltage_domain.voltage                   1                       # Voltage in Volts
system.cpu_clk_domain.clock                       500                       # Clock period in ticks
system.cpu0.apic_clk_domain.clock                8000                       # Clock period in ticks
system.cpu0.numCycles                      7338071373                       # number of cpu cycles simulated
system.cpu0.numWorkItemsStarted                     0                       # number of work items this cpu started
system.cpu0.numWorkItemsCompleted                   0                       # number of work items this cpu completed
system.cpu0.kern.inst.arm                           0                       # number of arm instructions executed
system.cpu0.kern.inst.quiesce                       0                       # number of quiesce instructions executed
system.cpu0.committedInsts                   19573961                       # Number of instructions committed
system.cpu0.committedOps                     34724472                       # Number of ops (including micro ops) committed
system.cpu0.num_int_alu_accesses             29322564                       # Number of integer alu accesses
system.cpu0.num_fp_alu_accesses               8399337                       # Number of float alu accesses
system.cpu0.num_func_calls                     615975                       # number of times a function call or return occured
system.cpu0.num_conditional_control_insts      2063759                       # number of instructions that are conditional controls
system.cpu0.num_int_insts                    29322564                       # number of integer instructions
system.cpu0.num_fp_insts                      8399337                       # number of float instructions
system.cpu0.num_int_register_reads           56616598                       # number of times the integer registers were read
system.cpu0.num_int_register_writes          22331969                       # number of times the integer registers were written
system.cpu0.num_fp_register_reads            14064330                       # number of times the floating registers were read
system.cpu0.num_fp_register_writes            7474281                       # number of times the floating registers were written
system.cpu0.num_cc_register_reads            14227915                       # number of times the CC registers were read
system.cpu0.num_cc_register_writes           10479986                       # number of times the CC registers were written
system.cpu0.num_mem_refs                      7773039                       # number of memory refs
system.cpu0.num_load_insts                    5768851                       # Number of load instructions
system.cpu0.num_store_insts                   2004188                       # Number of store instructions
system.cpu0.num_idle_cycles              7264314062.277800                       # Number of idle cycles
system.cpu0.num_busy_cycles              73757310.722201                       # Number of busy cycles
system.cpu0.not_idle_fraction                0.010051                       # Percentage of non-idle cycles
system.cpu0.idle_fraction                    0.989949                       # Percentage of idle cycles
system.cpu0.Branches                          2836685                       # Number of branches fetched
system.cpu0.op_class::No_OpClass               122832      0.35%      0.35% # Class of executed instruction
system.cpu0.op_class::IntAlu                 22957841     66.11%     66.47% # Class of executed instruction
system.cpu0.op_class::IntMult                  213911      0.62%     67.08% # Class of executed instruction
system.cpu0.op_class::IntDiv                    38685      0.11%     67.20% # Class of executed instruction
system.cpu0.op_class::FloatAdd                3618219     10.42%     77.62% # Class of executed instruction
system.cpu0.op_class::FloatCmp                      0      0.00%     77.62% # Class of executed instruction
system.cpu0.op_class::FloatCvt                      0      0.00%     77.62% # Class of executed instruction
system.cpu0.op_class::FloatMult                     0      0.00%     77.62% # Class of executed instruction
system.cpu0.op_class::FloatDiv                      0      0.00%     77.62% # Class of executed instruction
system.cpu0.op_class::FloatSqrt                     0      0.00%     77.62% # Class of executed instruction
system.cpu0.op_class::SimdAdd                       0      0.00%     77.62% # Class of executed instruction
system.cpu0.op_class::SimdAddAcc                    0      0.00%     77.62% # Class of executed instruction
system.cpu0.op_class::SimdAlu                       0      0.00%     77.62% # Class of executed instruction
system.cpu0.op_class::SimdCmp                       0      0.00%     77.62% # Class of executed instruction
system.cpu0.op_class::SimdCvt                       0      0.00%     77.62% # Class of executed instruction
system.cpu0.op_class::SimdMisc                      0      0.00%     77.62% # Class of executed instruction
system.cpu0.op_class::SimdMult                      0      0.00%     77.62% # Class of executed instruction
system.cpu0.op_class::SimdMultAcc                   0      0.00%     77.62% # Class of executed instruction
system.cpu0.op_class::SimdShift                     0      0.00%     77.62% # Class of executed instruction
system.cpu0.op_class::SimdShiftAcc                  0      0.00%     77.62% # Class of executed instruction
system.cpu0.op_class::SimdSqrt                      0      0.00%     77.62% # Class of executed instruction
system.cpu0.op_class::SimdFloatAdd                  0      0.00%     77.62% # Class of executed instruction
system.cpu0.op_class::SimdFloatAlu                  0      0.00%     77.62% # Class of executed instruction
system.cpu0.op_class::SimdFloatCmp                  0      0.00%     77.62% # Class of executed instruction
system.cpu0.op_class::SimdFloatCvt                  0      0.00%     77.62% # Class of executed instruction
system.cpu0.op_class::SimdFloatDiv                  0      0.00%     77.62% # Class of executed instruction
system.cpu0.op_class::SimdFloatMisc                 0      0.00%     77.62% # Class of executed instruction
system.cpu0.op_class::SimdFloatMult                 0      0.00%     77.62% # Class of executed instruction
system.cpu0.op_class::SimdFloatMultAcc              0      0.00%     77.62% # Class of executed instruction
system.cpu0.op_class::SimdFloatSqrt                 0      0.00%     77.62% # Class of executed instruction
system.cpu0.op_class::MemRead                 5768851     16.61%     94.23% # Class of executed instruction
system.cpu0.op_class::MemWrite                2004188      5.77%    100.00% # Class of executed instruction
system.cpu0.op_class::IprAccess                     0      0.00%    100.00% # Class of executed instruction
system.cpu0.op_class::InstPrefetch                  0      0.00%    100.00% # Class of executed instruction
system.cpu0.op_class::total                  34724527                       # Class of executed instruction
system.cpu1.apic_clk_domain.clock                8000                       # Clock period in ticks
system.cpu1.numCycles                      7338673475                       # number of cpu cycles simulated
system.cpu1.numWorkItemsStarted                     0                       # number of work items this cpu started
system.cpu1.numWorkItemsCompleted                   0                       # number of work items this cpu completed
system.cpu1.kern.inst.arm                           0                       # number of arm instructions executed
system.cpu1.kern.inst.quiesce                       0                       # number of quiesce instructions executed
system.cpu1.committedInsts                 1994034396                       # Number of instructions committed
system.cpu1.committedOps                   3392002220                       # Number of ops (including micro ops) committed
system.cpu1.num_int_alu_accesses           2756663489                       # Number of integer alu accesses
system.cpu1.num_fp_alu_accesses            1010088517                       # Number of float alu accesses
system.cpu1.num_func_calls                   49908775                       # number of times a function call or return occured
system.cpu1.num_conditional_control_insts    199774779                       # number of instructions that are conditional controls
system.cpu1.num_int_insts                  2756663489                       # number of integer instructions
system.cpu1.num_fp_insts                   1010088517                       # number of float instructions
system.cpu1.num_int_register_reads         5216490353                       # number of times the integer registers were read
system.cpu1.num_int_register_writes        2051868938                       # number of times the integer registers were written
system.cpu1.num_fp_register_reads          1701898740                       # number of times the floating registers were read
system.cpu1.num_fp_register_writes          899765659                       # number of times the floating registers were written
system.cpu1.num_cc_register_reads          1288207889                       # number of times the CC registers were read
system.cpu1.num_cc_register_writes         1039085320                       # number of times the CC registers were written
system.cpu1.num_mem_refs                    738032588                       # number of memory refs
system.cpu1.num_load_insts                  571683621                       # Number of load instructions
system.cpu1.num_store_insts                 166348967                       # Number of store instructions
system.cpu1.num_idle_cycles              65196927.252289                       # Number of idle cycles
system.cpu1.num_busy_cycles              7273476547.747710                       # Number of busy cycles
system.cpu1.not_idle_fraction                0.991116                       # Percentage of non-idle cycles
system.cpu1.idle_fraction                    0.008884                       # Percentage of idle cycles
system.cpu1.Branches                        261088009                       # Number of branches fetched
system.cpu1.op_class::No_OpClass              1505967      0.04%      0.04% # Class of executed instruction
system.cpu1.op_class::IntAlu               2188594283     64.52%     64.57% # Class of executed instruction
system.cpu1.op_class::IntMult                24039911      0.71%     65.28% # Class of executed instruction
system.cpu1.op_class::IntDiv                   210259      0.01%     65.28% # Class of executed instruction
system.cpu1.op_class::FloatAdd              439619365     12.96%     78.24% # Class of executed instruction
system.cpu1.op_class::FloatCmp                      0      0.00%     78.24% # Class of executed instruction
system.cpu1.op_class::FloatCvt                      0      0.00%     78.24% # Class of executed instruction
system.cpu1.op_class::FloatMult                     0      0.00%     78.24% # Class of executed instruction
system.cpu1.op_class::FloatDiv                      0      0.00%     78.24% # Class of executed instruction
system.cpu1.op_class::FloatSqrt                     0      0.00%     78.24% # Class of executed instruction
system.cpu1.op_class::SimdAdd                       0      0.00%     78.24% # Class of executed instruction
system.cpu1.op_class::SimdAddAcc                    0      0.00%     78.24% # Class of executed instruction
system.cpu1.op_class::SimdAlu                       0      0.00%     78.24% # Class of executed instruction
system.cpu1.op_class::SimdCmp                       0      0.00%     78.24% # Class of executed instruction
system.cpu1.op_class::SimdCvt                       0      0.00%     78.24% # Class of executed instruction
system.cpu1.op_class::SimdMisc                      0      0.00%     78.24% # Class of executed instruction
system.cpu1.op_class::SimdMult                      0      0.00%     78.24% # Class of executed instruction
system.cpu1.op_class::SimdMultAcc                   0      0.00%     78.24% # Class of executed instruction
system.cpu1.op_class::SimdShift                     0      0.00%     78.24% # Class of executed instruction
system.cpu1.op_class::SimdShiftAcc                  0      0.00%     78.24% # Class of executed instruction
system.cpu1.op_class::SimdSqrt                      0      0.00%     78.24% # Class of executed instruction
system.cpu1.op_class::SimdFloatAdd                  0      0.00%     78.24% # Class of executed instruction
system.cpu1.op_class::SimdFloatAlu                  0      0.00%     78.24% # Class of executed instruction
system.cpu1.op_class::SimdFloatCmp                  0      0.00%     78.24% # Class of executed instruction
system.cpu1.op_class::SimdFloatCvt                  0      0.00%     78.24% # Class of executed instruction
system.cpu1.op_class::SimdFloatDiv                  0      0.00%     78.24% # Class of executed instruction
system.cpu1.op_class::SimdFloatMisc                 0      0.00%     78.24% # Class of executed instruction
system.cpu1.op_class::SimdFloatMult                 0      0.00%     78.24% # Class of executed instruction
system.cpu1.op_class::SimdFloatMultAcc              0      0.00%     78.24% # Class of executed instruction
system.cpu1.op_class::SimdFloatSqrt                 0      0.00%     78.24% # Class of executed instruction
system.cpu1.op_class::MemRead               571683621     16.85%     95.10% # Class of executed instruction
system.cpu1.op_class::MemWrite              166348967      4.90%    100.00% # Class of executed instruction
system.cpu1.op_class::IprAccess                     0      0.00%    100.00% # Class of executed instruction
system.cpu1.op_class::InstPrefetch                  0      0.00%    100.00% # Class of executed instruction
system.cpu1.op_class::total                3392002373                       # Class of executed instruction
system.cpu2.apic_clk_domain.clock                8000                       # Clock period in ticks
system.cpu2.numCycles                      7333063885                       # number of cpu cycles simulated
system.cpu2.numWorkItemsStarted                     0                       # number of work items this cpu started
system.cpu2.numWorkItemsCompleted                   0                       # number of work items this cpu completed
system.cpu2.kern.inst.arm                           0                       # number of arm instructions executed
system.cpu2.kern.inst.quiesce                       0                       # number of quiesce instructions executed
system.cpu2.committedInsts                    2622075                       # Number of instructions committed
system.cpu2.committedOps                      5654479                       # Number of ops (including micro ops) committed
system.cpu2.num_int_alu_accesses              5529838                       # Number of integer alu accesses
system.cpu2.num_fp_alu_accesses                     0                       # Number of float alu accesses
system.cpu2.num_func_calls                     155341                       # number of times a function call or return occured
system.cpu2.num_conditional_control_insts       399379                       # number of instructions that are conditional controls
system.cpu2.num_int_insts                     5529838                       # number of integer instructions
system.cpu2.num_fp_insts                            0                       # number of float instructions
system.cpu2.num_int_register_reads           11231352                       # number of times the integer registers were read
system.cpu2.num_int_register_writes           4590377                       # number of times the integer registers were written
system.cpu2.num_fp_register_reads                   0                       # number of times the floating registers were read
system.cpu2.num_fp_register_writes                  0                       # number of times the floating registers were written
system.cpu2.num_cc_register_reads             3192745                       # number of times the CC registers were read
system.cpu2.num_cc_register_writes            1680511                       # number of times the CC registers were written
system.cpu2.num_mem_refs                      1344727                       # number of memory refs
system.cpu2.num_load_insts                     837951                       # Number of load instructions
system.cpu2.num_store_insts                    506776                       # Number of store instructions
system.cpu2.num_idle_cycles              7322134275.452605                       # Number of idle cycles
system.cpu2.num_busy_cycles              10929609.547395                       # Number of busy cycles
system.cpu2.not_idle_fraction                0.001490                       # Percentage of non-idle cycles
system.cpu2.idle_fraction                    0.998510                       # Percentage of idle cycles
system.cpu2.Branches                           605005                       # Number of branches fetched
system.cpu2.op_class::No_OpClass               106145      1.88%      1.88% # Class of executed instruction
system.cpu2.op_class::IntAlu                  4154746     73.48%     75.35% # Class of executed instruction
system.cpu2.op_class::IntMult                   11514      0.20%     75.56% # Class of executed instruction
system.cpu2.op_class::IntDiv                    37353      0.66%     76.22% # Class of executed instruction
system.cpu2.op_class::FloatAdd                      0      0.00%     76.22% # Class of executed instruction
system.cpu2.op_class::FloatCmp                      0      0.00%     76.22% # Class of executed instruction
system.cpu2.op_class::FloatCvt                      0      0.00%     76.22% # Class of executed instruction
system.cpu2.op_class::FloatMult                     0      0.00%     76.22% # Class of executed instruction
system.cpu2.op_class::FloatDiv                      0      0.00%     76.22% # Class of executed instruction
system.cpu2.op_class::FloatSqrt                     0      0.00%     76.22% # Class of executed instruction
system.cpu2.op_class::SimdAdd                       0      0.00%     76.22% # Class of executed instruction
system.cpu2.op_class::SimdAddAcc                    0      0.00%     76.22% # Class of executed instruction
system.cpu2.op_class::SimdAlu                       0      0.00%     76.22% # Class of executed instruction
system.cpu2.op_class::SimdCmp                       0      0.00%     76.22% # Class of executed instruction
system.cpu2.op_class::SimdCvt                       0      0.00%     76.22% # Class of executed instruction
system.cpu2.op_class::SimdMisc                      0      0.00%     76.22% # Class of executed instruction
system.cpu2.op_class::SimdMult                      0      0.00%     76.22% # Class of executed instruction
system.cpu2.op_class::SimdMultAcc                   0      0.00%     76.22% # Class of executed instruction
system.cpu2.op_class::SimdShift                     0      0.00%     76.22% # Class of executed instruction
system.cpu2.op_class::SimdShiftAcc                  0      0.00%     76.22% # Class of executed instruction
system.cpu2.op_class::SimdSqrt                      0      0.00%     76.22% # Class of executed instruction
system.cpu2.op_class::SimdFloatAdd                  0      0.00%     76.22% # Class of executed instruction
system.cpu2.op_class::SimdFloatAlu                  0      0.00%     76.22% # Class of executed instruction
system.cpu2.op_class::SimdFloatCmp                  0      0.00%     76.22% # Class of executed instruction
system.cpu2.op_class::SimdFloatCvt                  0      0.00%     76.22% # Class of executed instruction
system.cpu2.op_class::SimdFloatDiv                  0      0.00%     76.22% # Class of executed instruction
system.cpu2.op_class::SimdFloatMisc                 0      0.00%     76.22% # Class of executed instruction
system.cpu2.op_class::SimdFloatMult                 0      0.00%     76.22% # Class of executed instruction
system.cpu2.op_class::SimdFloatMultAcc              0      0.00%     76.22% # Class of executed instruction
system.cpu2.op_class::SimdFloatSqrt                 0      0.00%     76.22% # Class of executed instruction
system.cpu2.op_class::MemRead                  837951     14.82%     91.04% # Class of executed instruction
system.cpu2.op_class::MemWrite                 506776      8.96%    100.00% # Class of executed instruction
system.cpu2.op_class::IprAccess                     0      0.00%    100.00% # Class of executed instruction
system.cpu2.op_class::InstPrefetch                  0      0.00%    100.00% # Class of executed instruction
system.cpu2.op_class::total                   5654485                       # Class of executed instruction
system.cpu3.apic_clk_domain.clock                8000                       # Clock period in ticks
system.cpu3.numCycles                      7340619977                       # number of cpu cycles simulated
system.cpu3.numWorkItemsStarted                     0                       # number of work items this cpu started
system.cpu3.numWorkItemsCompleted                   0                       # number of work items this cpu completed
system.cpu3.kern.inst.arm                           0                       # number of arm instructions executed
system.cpu3.kern.inst.quiesce                       0                       # number of quiesce instructions executed
system.cpu3.committedInsts                    3265203                       # Number of instructions committed
system.cpu3.committedOps                      6785121                       # Number of ops (including micro ops) committed
system.cpu3.num_int_alu_accesses              6654075                       # Number of integer alu accesses
system.cpu3.num_fp_alu_accesses                  1952                       # Number of float alu accesses
system.cpu3.num_func_calls                     174889                       # number of times a function call or return occured
system.cpu3.num_conditional_control_insts       496971                       # number of instructions that are conditional controls
system.cpu3.num_int_insts                     6654075                       # number of integer instructions
system.cpu3.num_fp_insts                         1952                       # number of float instructions
system.cpu3.num_int_register_reads           13512697                       # number of times the integer registers were read
system.cpu3.num_int_register_writes           5486968                       # number of times the integer registers were written
system.cpu3.num_fp_register_reads                3276                       # number of times the floating registers were read
system.cpu3.num_fp_register_writes               1552                       # number of times the floating registers were written
system.cpu3.num_cc_register_reads             3795062                       # number of times the CC registers were read
system.cpu3.num_cc_register_writes            2084117                       # number of times the CC registers were written
system.cpu3.num_mem_refs                      1603389                       # number of memory refs
system.cpu3.num_load_insts                     995058                       # Number of load instructions
system.cpu3.num_store_insts                    608331                       # Number of store instructions
system.cpu3.num_idle_cycles              7326388311.362324                       # Number of idle cycles
system.cpu3.num_busy_cycles              14231665.637676                       # Number of busy cycles
system.cpu3.not_idle_fraction                0.001939                       # Percentage of non-idle cycles
system.cpu3.idle_fraction                    0.998061                       # Percentage of idle cycles
system.cpu3.Branches                           730637                       # Number of branches fetched
system.cpu3.op_class::No_OpClass               103659      1.53%      1.53% # Class of executed instruction
system.cpu3.op_class::IntAlu                  5024916     74.06%     75.58% # Class of executed instruction
system.cpu3.op_class::IntMult                   15240      0.22%     75.81% # Class of executed instruction
system.cpu3.op_class::IntDiv                    36549      0.54%     76.35% # Class of executed instruction
system.cpu3.op_class::FloatAdd                   1456      0.02%     76.37% # Class of executed instruction
system.cpu3.op_class::FloatCmp                      0      0.00%     76.37% # Class of executed instruction
system.cpu3.op_class::FloatCvt                      0      0.00%     76.37% # Class of executed instruction
system.cpu3.op_class::FloatMult                     0      0.00%     76.37% # Class of executed instruction
system.cpu3.op_class::FloatDiv                      0      0.00%     76.37% # Class of executed instruction
system.cpu3.op_class::FloatSqrt                     0      0.00%     76.37% # Class of executed instruction
system.cpu3.op_class::SimdAdd                       0      0.00%     76.37% # Class of executed instruction
system.cpu3.op_class::SimdAddAcc                    0      0.00%     76.37% # Class of executed instruction
system.cpu3.op_class::SimdAlu                       0      0.00%     76.37% # Class of executed instruction
system.cpu3.op_class::SimdCmp                       0      0.00%     76.37% # Class of executed instruction
system.cpu3.op_class::SimdCvt                       0      0.00%     76.37% # Class of executed instruction
system.cpu3.op_class::SimdMisc                      0      0.00%     76.37% # Class of executed instruction
system.cpu3.op_class::SimdMult                      0      0.00%     76.37% # Class of executed instruction
system.cpu3.op_class::SimdMultAcc                   0      0.00%     76.37% # Class of executed instruction
system.cpu3.op_class::SimdShift                     0      0.00%     76.37% # Class of executed instruction
system.cpu3.op_class::SimdShiftAcc                  0      0.00%     76.37% # Class of executed instruction
system.cpu3.op_class::SimdSqrt                      0      0.00%     76.37% # Class of executed instruction
system.cpu3.op_class::SimdFloatAdd                  0      0.00%     76.37% # Class of executed instruction
system.cpu3.op_class::SimdFloatAlu                  0      0.00%     76.37% # Class of executed instruction
system.cpu3.op_class::SimdFloatCmp                  0      0.00%     76.37% # Class of executed instruction
system.cpu3.op_class::SimdFloatCvt                  0      0.00%     76.37% # Class of executed instruction
system.cpu3.op_class::SimdFloatDiv                  0      0.00%     76.37% # Class of executed instruction
system.cpu3.op_class::SimdFloatMisc                 0      0.00%     76.37% # Class of executed instruction
system.cpu3.op_class::SimdFloatMult                 0      0.00%     76.37% # Class of executed instruction
system.cpu3.op_class::SimdFloatMultAcc              0      0.00%     76.37% # Class of executed instruction
system.cpu3.op_class::SimdFloatSqrt                 0      0.00%     76.37% # Class of executed instruction
system.cpu3.op_class::MemRead                  995058     14.67%     91.03% # Class of executed instruction
system.cpu3.op_class::MemWrite                 608331      8.97%    100.00% # Class of executed instruction
system.cpu3.op_class::IprAccess                     0      0.00%    100.00% # Class of executed instruction
system.cpu3.op_class::InstPrefetch                  0      0.00%    100.00% # Class of executed instruction
system.cpu3.op_class::total                   6785209                       # Class of executed instruction
system.iobus.trans_dist::ReadReq                  111                       # Transaction distribution
system.iobus.trans_dist::ReadResp                 111                       # Transaction distribution
system.iobus.trans_dist::WriteReq                3797                       # Transaction distribution
system.iobus.trans_dist::WriteResp               3797                       # Transaction distribution
system.iobus.trans_dist::MessageReq                16                       # Transaction distribution
system.iobus.trans_dist::MessageResp               16                       # Transaction distribution
system.iobus.pkt_count_system.pc.south_bridge.io_apic.int_master::system.ruby.l1_cntrl0.sequencer.pio-slave-port            4                       # Packet count per connected master and slave (bytes)
system.iobus.pkt_count_system.pc.south_bridge.io_apic.int_master::system.ruby.l1_cntrl1.sequencer.pio-slave-port            4                       # Packet count per connected master and slave (bytes)
system.iobus.pkt_count_system.pc.south_bridge.io_apic.int_master::system.ruby.l1_cntrl2.sequencer.pio-slave-port            2                       # Packet count per connected master and slave (bytes)
system.iobus.pkt_count_system.pc.south_bridge.io_apic.int_master::system.ruby.l1_cntrl3.sequencer.pio-slave-port            4                       # Packet count per connected master and slave (bytes)
system.iobus.pkt_count_system.pc.south_bridge.io_apic.int_master::total           14                       # Packet count per connected master and slave (bytes)
system.iobus.pkt_count_system.ruby.l1_cntrl0.sequencer.mem-master-port::system.pc.south_bridge.ide.pio          114                       # Packet count per connected master and slave (bytes)
system.iobus.pkt_count_system.ruby.l1_cntrl0.sequencer.mem-master-port::system.pc.south_bridge.io_apic.pio            8                       # Packet count per connected master and slave (bytes)
system.iobus.pkt_count_system.ruby.l1_cntrl0.sequencer.mem-master-port::system.ruby.l1_cntrl0.sequencer.pio-slave-port         1862                       # Packet count per connected master and slave (bytes)
system.iobus.pkt_count_system.ruby.l1_cntrl0.sequencer.mem-master-port::system.ruby.l1_cntrl1.sequencer.pio-slave-port            2                       # Packet count per connected master and slave (bytes)
system.iobus.pkt_count_system.ruby.l1_cntrl0.sequencer.mem-master-port::system.ruby.l1_cntrl3.sequencer.pio-slave-port            2                       # Packet count per connected master and slave (bytes)
system.iobus.pkt_count_system.ruby.l1_cntrl0.sequencer.mem-master-port::total         1988                       # Packet count per connected master and slave (bytes)
system.iobus.pkt_count_system.ruby.l1_cntrl1.sequencer.mem-master-port::system.pc.south_bridge.ide.pio           12                       # Packet count per connected master and slave (bytes)
system.iobus.pkt_count_system.ruby.l1_cntrl1.sequencer.mem-master-port::system.pc.south_bridge.io_apic.pio            8                       # Packet count per connected master and slave (bytes)
system.iobus.pkt_count_system.ruby.l1_cntrl1.sequencer.mem-master-port::system.pc.com_1.pio            2                       # Packet count per connected master and slave (bytes)
system.iobus.pkt_count_system.ruby.l1_cntrl1.sequencer.mem-master-port::system.ruby.l1_cntrl0.sequencer.pio-slave-port            4                       # Packet count per connected master and slave (bytes)
system.iobus.pkt_count_system.ruby.l1_cntrl1.sequencer.mem-master-port::system.ruby.l1_cntrl1.sequencer.pio-slave-port         1860                       # Packet count per connected master and slave (bytes)
system.iobus.pkt_count_system.ruby.l1_cntrl1.sequencer.mem-master-port::system.ruby.l1_cntrl2.sequencer.pio-slave-port            2                       # Packet count per connected master and slave (bytes)
system.iobus.pkt_count_system.ruby.l1_cntrl1.sequencer.mem-master-port::total         1888                       # Packet count per connected master and slave (bytes)
system.iobus.pkt_count_system.ruby.l1_cntrl2.sequencer.mem-master-port::system.pc.south_bridge.ide.pio           12                       # Packet count per connected master and slave (bytes)
system.iobus.pkt_count_system.ruby.l1_cntrl2.sequencer.mem-master-port::system.ruby.l1_cntrl0.sequencer.pio-slave-port            2                       # Packet count per connected master and slave (bytes)
system.iobus.pkt_count_system.ruby.l1_cntrl2.sequencer.mem-master-port::system.ruby.l1_cntrl2.sequencer.pio-slave-port         1854                       # Packet count per connected master and slave (bytes)
system.iobus.pkt_count_system.ruby.l1_cntrl2.sequencer.mem-master-port::system.ruby.l1_cntrl3.sequencer.pio-slave-port            2                       # Packet count per connected master and slave (bytes)
system.iobus.pkt_count_system.ruby.l1_cntrl2.sequencer.mem-master-port::total         1870                       # Packet count per connected master and slave (bytes)
system.iobus.pkt_count_system.ruby.l1_cntrl3.sequencer.mem-master-port::system.pc.south_bridge.ide.pio           46                       # Packet count per connected master and slave (bytes)
system.iobus.pkt_count_system.ruby.l1_cntrl3.sequencer.mem-master-port::system.pc.south_bridge.io_apic.pio            6                       # Packet count per connected master and slave (bytes)
system.iobus.pkt_count_system.ruby.l1_cntrl3.sequencer.mem-master-port::system.pc.com_1.pio          174                       # Packet count per connected master and slave (bytes)
system.iobus.pkt_count_system.ruby.l1_cntrl3.sequencer.mem-master-port::system.ruby.l1_cntrl0.sequencer.pio-slave-port            2                       # Packet count per connected master and slave (bytes)
system.iobus.pkt_count_system.ruby.l1_cntrl3.sequencer.mem-master-port::system.ruby.l1_cntrl2.sequencer.pio-slave-port            2                       # Packet count per connected master and slave (bytes)
system.iobus.pkt_count_system.ruby.l1_cntrl3.sequencer.mem-master-port::system.ruby.l1_cntrl3.sequencer.pio-slave-port         1858                       # Packet count per connected master and slave (bytes)
system.iobus.pkt_count_system.ruby.l1_cntrl3.sequencer.mem-master-port::total         2088                       # Packet count per connected master and slave (bytes)
system.iobus.pkt_count::total                    7848                       # Packet count per connected master and slave (bytes)
system.iobus.pkt_size_system.pc.south_bridge.io_apic.int_master::system.ruby.l1_cntrl0.sequencer.pio-slave-port            8                       # Cumulative packet size per connected master and slave (bytes)
system.iobus.pkt_size_system.pc.south_bridge.io_apic.int_master::system.ruby.l1_cntrl1.sequencer.pio-slave-port            8                       # Cumulative packet size per connected master and slave (bytes)
system.iobus.pkt_size_system.pc.south_bridge.io_apic.int_master::system.ruby.l1_cntrl2.sequencer.pio-slave-port            4                       # Cumulative packet size per connected master and slave (bytes)
system.iobus.pkt_size_system.pc.south_bridge.io_apic.int_master::system.ruby.l1_cntrl3.sequencer.pio-slave-port            8                       # Cumulative packet size per connected master and slave (bytes)
system.iobus.pkt_size_system.pc.south_bridge.io_apic.int_master::total           28                       # Cumulative packet size per connected master and slave (bytes)
system.iobus.pkt_size_system.ruby.l1_cntrl0.sequencer.mem-master-port::system.pc.south_bridge.ide.pio           66                       # Cumulative packet size per connected master and slave (bytes)
system.iobus.pkt_size_system.ruby.l1_cntrl0.sequencer.mem-master-port::system.pc.south_bridge.io_apic.pio           16                       # Cumulative packet size per connected master and slave (bytes)
system.iobus.pkt_size_system.ruby.l1_cntrl0.sequencer.mem-master-port::system.ruby.l1_cntrl0.sequencer.pio-slave-port         3724                       # Cumulative packet size per connected master and slave (bytes)
system.iobus.pkt_size_system.ruby.l1_cntrl0.sequencer.mem-master-port::system.ruby.l1_cntrl1.sequencer.pio-slave-port            4                       # Cumulative packet size per connected master and slave (bytes)
system.iobus.pkt_size_system.ruby.l1_cntrl0.sequencer.mem-master-port::system.ruby.l1_cntrl3.sequencer.pio-slave-port            4                       # Cumulative packet size per connected master and slave (bytes)
system.iobus.pkt_size_system.ruby.l1_cntrl0.sequencer.mem-master-port::total         3814                       # Cumulative packet size per connected master and slave (bytes)
system.iobus.pkt_size_system.ruby.l1_cntrl1.sequencer.mem-master-port::system.pc.south_bridge.ide.pio            6                       # Cumulative packet size per connected master and slave (bytes)
system.iobus.pkt_size_system.ruby.l1_cntrl1.sequencer.mem-master-port::system.pc.south_bridge.io_apic.pio           16                       # Cumulative packet size per connected master and slave (bytes)
system.iobus.pkt_size_system.ruby.l1_cntrl1.sequencer.mem-master-port::system.pc.com_1.pio            1                       # Cumulative packet size per connected master and slave (bytes)
system.iobus.pkt_size_system.ruby.l1_cntrl1.sequencer.mem-master-port::system.ruby.l1_cntrl0.sequencer.pio-slave-port            8                       # Cumulative packet size per connected master and slave (bytes)
system.iobus.pkt_size_system.ruby.l1_cntrl1.sequencer.mem-master-port::system.ruby.l1_cntrl1.sequencer.pio-slave-port         3720                       # Cumulative packet size per connected master and slave (bytes)
system.iobus.pkt_size_system.ruby.l1_cntrl1.sequencer.mem-master-port::system.ruby.l1_cntrl2.sequencer.pio-slave-port            4                       # Cumulative packet size per connected master and slave (bytes)
system.iobus.pkt_size_system.ruby.l1_cntrl1.sequencer.mem-master-port::total         3755                       # Cumulative packet size per connected master and slave (bytes)
system.iobus.pkt_size_system.ruby.l1_cntrl2.sequencer.mem-master-port::system.pc.south_bridge.ide.pio            6                       # Cumulative packet size per connected master and slave (bytes)
system.iobus.pkt_size_system.ruby.l1_cntrl2.sequencer.mem-master-port::system.ruby.l1_cntrl0.sequencer.pio-slave-port            4                       # Cumulative packet size per connected master and slave (bytes)
system.iobus.pkt_size_system.ruby.l1_cntrl2.sequencer.mem-master-port::system.ruby.l1_cntrl2.sequencer.pio-slave-port         3708                       # Cumulative packet size per connected master and slave (bytes)
system.iobus.pkt_size_system.ruby.l1_cntrl2.sequencer.mem-master-port::system.ruby.l1_cntrl3.sequencer.pio-slave-port            4                       # Cumulative packet size per connected master and slave (bytes)
system.iobus.pkt_size_system.ruby.l1_cntrl2.sequencer.mem-master-port::total         3722                       # Cumulative packet size per connected master and slave (bytes)
system.iobus.pkt_size_system.ruby.l1_cntrl3.sequencer.mem-master-port::system.pc.south_bridge.ide.pio           26                       # Cumulative packet size per connected master and slave (bytes)
system.iobus.pkt_size_system.ruby.l1_cntrl3.sequencer.mem-master-port::system.pc.south_bridge.io_apic.pio           12                       # Cumulative packet size per connected master and slave (bytes)
system.iobus.pkt_size_system.ruby.l1_cntrl3.sequencer.mem-master-port::system.pc.com_1.pio           87                       # Cumulative packet size per connected master and slave (bytes)
system.iobus.pkt_size_system.ruby.l1_cntrl3.sequencer.mem-master-port::system.ruby.l1_cntrl0.sequencer.pio-slave-port            4                       # Cumulative packet size per connected master and slave (bytes)
system.iobus.pkt_size_system.ruby.l1_cntrl3.sequencer.mem-master-port::system.ruby.l1_cntrl2.sequencer.pio-slave-port            4                       # Cumulative packet size per connected master and slave (bytes)
system.iobus.pkt_size_system.ruby.l1_cntrl3.sequencer.mem-master-port::system.ruby.l1_cntrl3.sequencer.pio-slave-port         3716                       # Cumulative packet size per connected master and slave (bytes)
system.iobus.pkt_size_system.ruby.l1_cntrl3.sequencer.mem-master-port::total         3849                       # Cumulative packet size per connected master and slave (bytes)
system.iobus.pkt_size::total                    15168                       # Cumulative packet size per connected master and slave (bytes)
system.iobus.reqLayer2.occupancy               161000                       # Layer occupancy (ticks)
system.iobus.reqLayer2.utilization                0.0                       # Layer utilization (%)
system.iobus.reqLayer8.occupancy                20497                       # Layer occupancy (ticks)
system.iobus.reqLayer8.utilization                0.0                       # Layer utilization (%)
system.iobus.reqLayer12.occupancy              113500                       # Layer occupancy (ticks)
system.iobus.reqLayer12.utilization               0.0                       # Layer utilization (%)
system.iobus.reqLayer17.occupancy             2330994                       # Layer occupancy (ticks)
system.iobus.reqLayer17.utilization               0.0                       # Layer utilization (%)
system.iobus.reqLayer18.occupancy             2164980                       # Layer occupancy (ticks)
system.iobus.reqLayer18.utilization               0.0                       # Layer utilization (%)
system.iobus.reqLayer19.occupancy             2318999                       # Layer occupancy (ticks)
system.iobus.reqLayer19.utilization               0.0                       # Layer utilization (%)
system.iobus.reqLayer20.occupancy             2325998                       # Layer occupancy (ticks)
system.iobus.reqLayer20.utilization               0.0                       # Layer utilization (%)
system.iobus.respLayer0.occupancy               10496                       # Layer occupancy (ticks)
system.iobus.respLayer0.utilization               0.0                       # Layer utilization (%)
system.iobus.respLayer2.occupancy             1479500                       # Layer occupancy (ticks)
system.iobus.respLayer2.utilization               0.0                       # Layer utilization (%)
system.iobus.respLayer4.occupancy             1418000                       # Layer occupancy (ticks)
system.iobus.respLayer4.utilization               0.0                       # Layer utilization (%)
system.iobus.respLayer6.occupancy             1404500                       # Layer occupancy (ticks)
system.iobus.respLayer6.utilization               0.0                       # Layer utilization (%)
system.iobus.respLayer8.occupancy             1584500                       # Layer occupancy (ticks)
system.iobus.respLayer8.utilization               0.0                       # Layer utilization (%)
system.pc.south_bridge.ide.disks.dma_read_full_pages            1                       # Number of full page size DMA reads (not PRD).
system.pc.south_bridge.ide.disks.dma_read_bytes         4096                       # Number of bytes transfered via DMA reads (not PRD).
system.pc.south_bridge.ide.disks.dma_read_txs            1                       # Number of DMA read transactions (not PRD).
system.pc.south_bridge.ide.disks.dma_write_full_pages           45                       # Number of full page size DMA writes.
system.pc.south_bridge.ide.disks.dma_write_bytes       184320                       # Number of bytes transfered via DMA writes.
system.pc.south_bridge.ide.disks.dma_write_txs           45                       # Number of DMA write transactions.
system.ruby.clk_domain.clock                      500                       # Clock period in ticks
system.ruby.delayHist::bucket_size                  4                       # delay histogram for all message
system.ruby.delayHist::max_bucket                  39                       # delay histogram for all message
system.ruby.delayHist::samples               47360190                       # delay histogram for all message
system.ruby.delayHist::mean                  0.824474                       # delay histogram for all message
system.ruby.delayHist::stdev                 2.432031                       # delay histogram for all message
system.ruby.delayHist                    |    42481319     89.70%     89.70% |        2224      0.00%     89.70% |     4876330     10.30%    100.00% |          85      0.00%    100.00% |         202      0.00%    100.00% |           3      0.00%    100.00% |          18      0.00%    100.00% |           4      0.00%    100.00% |           0      0.00%    100.00% |           5      0.00%    100.00% # delay histogram for all message
system.ruby.delayHist::total                 47360190                       # delay histogram for all message
system.ruby.outstanding_req_hist_seqr::bucket_size            1                      
system.ruby.outstanding_req_hist_seqr::max_bucket            9                      
system.ruby.outstanding_req_hist_seqr::samples   3589001818                      
system.ruby.outstanding_req_hist_seqr::mean     1.000000                      
system.ruby.outstanding_req_hist_seqr::gmean     1.000000                      
system.ruby.outstanding_req_hist_seqr::stdev     0.000246                      
system.ruby.outstanding_req_hist_seqr    |           0      0.00%      0.00% |  3589001600    100.00%    100.00% |         218      0.00%    100.00% |           0      0.00%    100.00% |           0      0.00%    100.00% |           0      0.00%    100.00% |           0      0.00%    100.00% |           0      0.00%    100.00% |           0      0.00%    100.00% |           0      0.00%    100.00%
system.ruby.outstanding_req_hist_seqr::total   3589001818                      
[...]
system.ruby.DMA_Controller.ReadRequest   |          96    100.00%    100.00% |           0      0.00%    100.00%
system.ruby.DMA_Controller.ReadRequest::total           96                      
system.ruby.DMA_Controller.WriteRequest  |        3008    100.00%    100.00% |           0      0.00%    100.00%
system.ruby.DMA_Controller.WriteRequest::total         3008                      
system.ruby.DMA_Controller.Data          |          96    100.00%    100.00% |           0      0.00%    100.00%
system.ruby.DMA_Controller.Data::total             96                      
system.ruby.DMA_Controller.Ack           |        3008    100.00%    100.00% |           0      0.00%    100.00%
system.ruby.DMA_Controller.Ack::total            3008                      
system.ruby.DMA_Controller.READY.ReadRequest |          96    100.00%    100.00% |           0      0.00%    100.00%
system.ruby.DMA_Controller.READY.ReadRequest::total           96                      
system.ruby.DMA_Controller.READY.WriteRequest |        3008    100.00%    100.00% |           0      0.00%    100.00%
system.ruby.DMA_Controller.READY.WriteRequest::total         3008                      
system.ruby.DMA_Controller.BUSY_RD.Data  |          96    100.00%    100.00% |           0      0.00%    100.00%
system.ruby.DMA_Controller.BUSY_RD.Data::total           96                      
system.ruby.DMA_Controller.BUSY_WR.Ack   |        3008    100.00%    100.00% |           0      0.00%    100.00%
system.ruby.DMA_Controller.BUSY_WR.Ack::total         3008                      
system.ruby.L1Cache_Controller.Load      |     5946180      1.03%      1.03% |   566233540     98.41%     99.44% |     1440097      0.25%     99.69% |     1772472      0.31%    100.00%
system.ruby.L1Cache_Controller.Load::total    575392289                      
system.ruby.L1Cache_Controller.Ifetch    |    28786542      0.00%      0.00% |18446744072220762112    100.00%    100.00% |     7245175      0.00%    100.00% |     8727125      0.00%    100.00%
system.ruby.L1Cache_Controller.Ifetch::total 18446744072265521152                      
system.ruby.L1Cache_Controller.Store     |     2360676      1.33%      1.33% |   172196050     97.32%     98.65% |     1094106      0.62%     99.27% |     1292975      0.73%    100.00%
system.ruby.L1Cache_Controller.Store::total    176943807                      
system.ruby.L1Cache_Controller.Inv       |       14736     23.09%     23.09% |        9571     15.00%     38.08% |       19370     30.35%     68.43% |       20150     31.57%    100.00%
system.ruby.L1Cache_Controller.Inv::total        63827                      
system.ruby.L1Cache_Controller.L1_Replacement |      195672      1.81%      1.81% |    10371275     95.86%     97.67% |      117412      1.09%     98.76% |      134542      1.24%    100.00%
system.ruby.L1Cache_Controller.L1_Replacement::total     10818901                      
system.ruby.L1Cache_Controller.Fwd_GETX  |        1209     20.49%     20.49% |        1298     22.00%     42.50% |        1190     20.17%     62.67% |        2202     37.33%    100.00%
system.ruby.L1Cache_Controller.Fwd_GETX::total         5899                      
system.ruby.L1Cache_Controller.Fwd_GETS  |        9557     38.19%     38.19% |        1534      6.13%     44.32% |        7578     30.28%     74.60% |        6358     25.40%    100.00%
system.ruby.L1Cache_Controller.Fwd_GETS::total        25027                      
system.ruby.L1Cache_Controller.Data      |         960     20.71%     20.71% |         948     20.45%     41.16% |        1773     38.24%     79.40% |         955     20.60%    100.00%
system.ruby.L1Cache_Controller.Data::total         4636                      
system.ruby.L1Cache_Controller.Data_Exclusive |       64660      1.37%      1.37% |     4588675     97.19%     98.56% |       32315      0.68%     99.25% |       35548      0.75%    100.00%
system.ruby.L1Cache_Controller.Data_Exclusive::total      4721198                      
system.ruby.L1Cache_Controller.DataS_fromL1 |        5398     21.57%     21.57% |        6327     25.28%     46.85% |        5283     21.11%     67.96% |        8019     32.04%    100.00%
system.ruby.L1Cache_Controller.DataS_fromL1::total        25027                      
system.ruby.L1Cache_Controller.Data_all_Acks |      126779      2.08%      2.08% |     5777419     94.89%     96.97% |       85838      1.41%     98.38% |       98515      1.62%    100.00%
system.ruby.L1Cache_Controller.Data_all_Acks::total      6088551                      
system.ruby.L1Cache_Controller.Ack       |       21094     47.84%     47.84% |        8131     18.44%     66.28% |        6642     15.06%     81.34% |        8228     18.66%    100.00%
system.ruby.L1Cache_Controller.Ack::total        44095                      
system.ruby.L1Cache_Controller.Ack_all   |        9478     39.61%     39.61% |        3979     16.63%     56.24% |        4969     20.77%     77.00% |        5503     23.00%    100.00%
system.ruby.L1Cache_Controller.Ack_all::total        23929                      
system.ruby.L1Cache_Controller.WB_Ack    |      107241      1.23%      1.23% |     8512772     97.65%     98.88% |       42899      0.49%     99.37% |       54940      0.63%    100.00%
system.ruby.L1Cache_Controller.WB_Ack::total      8717852                      
system.ruby.L1Cache_Controller.NP.Load   |       80485      1.48%      1.48% |     5258267     96.74%     98.22% |       45343      0.83%     99.05% |       51647      0.95%    100.00%
system.ruby.L1Cache_Controller.NP.Load::total      5435742                      
system.ruby.L1Cache_Controller.NP.Ifetch |       70739      5.13%      5.13% |     1190029     86.32%     91.45% |       56665      4.11%     95.56% |       61187      4.44%    100.00%
system.ruby.L1Cache_Controller.NP.Ifetch::total      1378620                      
system.ruby.L1Cache_Controller.NP.Store  |       44448      1.11%      1.11% |     3923023     97.96%     99.07% |       15404      0.38%     99.45% |       21878      0.55%    100.00%
system.ruby.L1Cache_Controller.NP.Store::total      4004753                      
system.ruby.L1Cache_Controller.NP.Inv    |        7373     24.80%     24.80% |        7652     25.74%     50.54% |        7217     24.28%     74.82% |        7486     25.18%    100.00%
system.ruby.L1Cache_Controller.NP.Inv::total        29728                      
system.ruby.L1Cache_Controller.I.Load    |        1395      8.66%      8.66% |        1066      6.62%     15.28% |        6997     43.44%     58.71% |        6651     41.29%    100.00%
system.ruby.L1Cache_Controller.I.Load::total        16109                      
system.ruby.L1Cache_Controller.I.Ifetch  |          12     24.00%     24.00% |          13     26.00%     50.00% |          19     38.00%     88.00% |           6     12.00%    100.00%
system.ruby.L1Cache_Controller.I.Ifetch::total           50                      
system.ruby.L1Cache_Controller.I.Store   |         718     17.35%     17.35% |         971     23.47%     40.82% |         781     18.87%     59.69% |        1668     40.31%    100.00%
system.ruby.L1Cache_Controller.I.Store::total         4138                      
system.ruby.L1Cache_Controller.I.L1_Replacement |        6591     33.62%     33.62% |        1098      5.60%     39.22% |        5405     27.57%     66.79% |        6510     33.21%    100.00%
system.ruby.L1Cache_Controller.I.L1_Replacement::total        19604                      
system.ruby.L1Cache_Controller.S.Load    |      386910      0.39%      0.39% |    97801978     99.11%     99.50% |      226958      0.23%     99.73% |      267776      0.27%    100.00%
system.ruby.L1Cache_Controller.S.Load::total     98683622                      
system.ruby.L1Cache_Controller.S.Ifetch  |    28715791      0.00%      0.00% |18446744072219572224    100.00%    100.00% |     7188490      0.00%    100.00% |     8665932      0.00%    100.00%
system.ruby.L1Cache_Controller.S.Ifetch::total 18446744072264140800                      
system.ruby.L1Cache_Controller.S.Store   |        8518     44.15%     44.15% |        3031     15.71%     59.86% |        3196     16.57%     76.43% |        4548     23.57%    100.00%
system.ruby.L1Cache_Controller.S.Store::total        19293                      
system.ruby.L1Cache_Controller.S.Inv     |        7234     21.56%     21.56% |        1765      5.26%     26.82% |       11989     35.73%     62.55% |       12568     37.45%    100.00%
system.ruby.L1Cache_Controller.S.Inv::total        33556                      
system.ruby.L1Cache_Controller.S.L1_Replacement |       81840      3.93%      3.93% |     1857405     89.24%     93.17% |       69108      3.32%     96.49% |       73092      3.51%    100.00%
system.ruby.L1Cache_Controller.S.L1_Replacement::total      2081445                      
system.ruby.L1Cache_Controller.E.Load    |     2087230      1.27%      1.27% |   161082589     98.38%     99.66% |      276113      0.17%     99.82% |      286604      0.18%    100.00%
system.ruby.L1Cache_Controller.E.Load::total    163732536                      
system.ruby.L1Cache_Controller.E.Store   |       12345      1.36%      1.36% |      876530     96.40%     97.75% |       10351      1.14%     98.89% |       10072      1.11%    100.00%
system.ruby.L1Cache_Controller.E.Store::total       909298                      
system.ruby.L1Cache_Controller.E.Inv     |          36     20.11%     20.11% |          55     30.73%     50.84% |          59     32.96%     83.80% |          29     16.20%    100.00%
system.ruby.L1Cache_Controller.E.Inv::total          179                      
system.ruby.L1Cache_Controller.E.L1_Replacement |       49860      1.31%      1.31% |     3711679     97.65%     98.96% |       17172      0.45%     99.41% |       22471      0.59%    100.00%
system.ruby.L1Cache_Controller.E.L1_Replacement::total      3801182                      
system.ruby.L1Cache_Controller.E.Fwd_GETX |         123     17.23%     17.23% |          80     11.20%     28.43% |         222     31.09%     59.52% |         289     40.48%    100.00%
system.ruby.L1Cache_Controller.E.Fwd_GETX::total          714                      
system.ruby.L1Cache_Controller.E.Fwd_GETS |        2120     21.69%     21.69% |         327      3.35%     25.04% |        4673     47.82%     72.85% |        2653     27.15%    100.00%
system.ruby.L1Cache_Controller.E.Fwd_GETS::total         9773                      
system.ruby.L1Cache_Controller.M.Load    |     3390160      1.10%      1.10% |   302089640     98.23%     99.34% |      884686      0.29%     99.62% |     1159794      0.38%    100.00%
system.ruby.L1Cache_Controller.M.Load::total    307524280                      
system.ruby.L1Cache_Controller.M.Store   |     2294647      1.33%      1.33% |   167392495     97.32%     98.65% |     1064374      0.62%     99.27% |     1254809      0.73%    100.00%
system.ruby.L1Cache_Controller.M.Store::total    172006325                      
system.ruby.L1Cache_Controller.M.Inv     |          93     25.55%     25.55% |          99     27.20%     52.75% |         105     28.85%     81.59% |          67     18.41%    100.00%
system.ruby.L1Cache_Controller.M.Inv::total          364                      
system.ruby.L1Cache_Controller.M.L1_Replacement |       57381      1.17%      1.17% |     4801093     97.65%     98.82% |       25727      0.52%     99.34% |       32469      0.66%    100.00%
system.ruby.L1Cache_Controller.M.L1_Replacement::total      4916670                      
system.ruby.L1Cache_Controller.M.Fwd_GETX |        1086     20.95%     20.95% |        1218     23.49%     44.44% |         968     18.67%     63.11% |        1913     36.89%    100.00%
system.ruby.L1Cache_Controller.M.Fwd_GETX::total         5185                      
system.ruby.L1Cache_Controller.M.Fwd_GETS |        7437     48.75%     48.75% |        1207      7.91%     56.67% |        2905     19.04%     75.71% |        3705     24.29%    100.00%
system.ruby.L1Cache_Controller.M.Fwd_GETS::total        15254                      
system.ruby.L1Cache_Controller.IS.Data_Exclusive |       64660      1.37%      1.37% |     4588675     97.19%     98.56% |       32315      0.68%     99.25% |       35548      0.75%    100.00%
system.ruby.L1Cache_Controller.IS.Data_Exclusive::total      4721198                      
system.ruby.L1Cache_Controller.IS.DataS_fromL1 |        5398     21.57%     21.57% |        6327     25.28%     46.85% |        5283     21.11%     67.96% |        8019     32.04%    100.00%
system.ruby.L1Cache_Controller.IS.DataS_fromL1::total        25027                      
system.ruby.L1Cache_Controller.IS.Data_all_Acks |       82573      3.96%      3.96% |     1854373     88.97%     92.93% |       71426      3.43%     96.36% |       75924      3.64%    100.00%
system.ruby.L1Cache_Controller.IS.Data_all_Acks::total      2084296                      
system.ruby.L1Cache_Controller.IM.Data   |         960     20.71%     20.71% |         948     20.45%     41.16% |        1773     38.24%     79.40% |         955     20.60%    100.00%
system.ruby.L1Cache_Controller.IM.Data::total         4636                      
system.ruby.L1Cache_Controller.IM.Data_all_Acks |       44206      1.10%      1.10% |     3923046     97.97%     99.08% |       14412      0.36%     99.44% |       22591      0.56%    100.00%
system.ruby.L1Cache_Controller.IM.Data_all_Acks::total      4004255                      
system.ruby.L1Cache_Controller.SM.Ack    |       21094     47.84%     47.84% |        8131     18.44%     66.28% |        6642     15.06%     81.34% |        8228     18.66%    100.00%
system.ruby.L1Cache_Controller.SM.Ack::total        44095                      
system.ruby.L1Cache_Controller.SM.Ack_all |        9478     39.61%     39.61% |        3979     16.63%     56.24% |        4969     20.77%     77.00% |        5503     23.00%    100.00%
system.ruby.L1Cache_Controller.SM.Ack_all::total        23929                      
system.ruby.L1Cache_Controller.M_I.Ifetch |           0      0.00%      0.00% |           0      0.00%      0.00% |           1    100.00%    100.00% |           0      0.00%    100.00%
system.ruby.L1Cache_Controller.M_I.Ifetch::total            1                      
system.ruby.L1Cache_Controller.M_I.WB_Ack |      107241      1.23%      1.23% |     8512772     97.65%     98.88% |       42899      0.49%     99.37% |       54940      0.63%    100.00%
system.ruby.L1Cache_Controller.M_I.WB_Ack::total      8717852                      
system.ruby.L2Cache_Controller.L1_GET_INSTR      1378670      0.00%      0.00%
system.ruby.L2Cache_Controller.L1_GETS        5452543      0.00%      0.00%
system.ruby.L2Cache_Controller.L1_GETX        4008894      0.00%      0.00%
system.ruby.L2Cache_Controller.L1_UPGRADE        19293      0.00%      0.00%
system.ruby.L2Cache_Controller.L1_PUTX        8717852      0.00%      0.00%
system.ruby.L2Cache_Controller.L2_Replacement        23581      0.00%      0.00%
system.ruby.L2Cache_Controller.L2_Replacement_clean        14958      0.00%      0.00%
system.ruby.L2Cache_Controller.Mem_Data         56753      0.00%      0.00%
system.ruby.L2Cache_Controller.Mem_Ack          39498      0.00%      0.00%
system.ruby.L2Cache_Controller.WB_Data          15618      0.00%      0.00%
system.ruby.L2Cache_Controller.WB_Data_clean         9773      0.00%      0.00%
system.ruby.L2Cache_Controller.Ack               7850      0.00%      0.00%
system.ruby.L2Cache_Controller.Ack_all           6882      0.00%      0.00%
system.ruby.L2Cache_Controller.Unblock          25027      0.00%      0.00%
system.ruby.L2Cache_Controller.Exclusive_Unblock      8749382      0.00%      0.00%
system.ruby.L2Cache_Controller.MEM_Inv           1918      0.00%      0.00%
system.ruby.L2Cache_Controller.NP.L1_GET_INSTR         8261      0.00%      0.00%
system.ruby.L2Cache_Controller.NP.L1_GETS        22090      0.00%      0.00%
system.ruby.L2Cache_Controller.NP.L1_GETX        26402      0.00%      0.00%
system.ruby.L2Cache_Controller.SS.L1_GET_INSTR      1370395      0.00%      0.00%
system.ruby.L2Cache_Controller.SS.L1_GETS       705604      0.00%      0.00%
system.ruby.L2Cache_Controller.SS.L1_GETX         4636      0.00%      0.00%
system.ruby.L2Cache_Controller.SS.L1_UPGRADE        19293      0.00%      0.00%
system.ruby.L2Cache_Controller.SS.L2_Replacement          296      0.00%      0.00%
system.ruby.L2Cache_Controller.SS.L2_Replacement_clean         6332      0.00%      0.00%
system.ruby.L2Cache_Controller.SS.MEM_Inv           75      0.00%      0.00%
system.ruby.L2Cache_Controller.M.L1_GET_INSTR           14      0.00%      0.00%
system.ruby.L2Cache_Controller.M.L1_GETS      4699119      0.00%      0.00%
system.ruby.L2Cache_Controller.M.L1_GETX      3971954      0.00%      0.00%
system.ruby.L2Cache_Controller.M.L2_Replacement        23041      0.00%      0.00%
system.ruby.L2Cache_Controller.M.L2_Replacement_clean         8336      0.00%      0.00%
system.ruby.L2Cache_Controller.M.MEM_Inv          875      0.00%      0.00%
system.ruby.L2Cache_Controller.MT.L1_GETS        25027      0.00%      0.00%
system.ruby.L2Cache_Controller.MT.L1_GETX         5899      0.00%      0.00%
system.ruby.L2Cache_Controller.MT.L1_PUTX      8717852      0.00%      0.00%
system.ruby.L2Cache_Controller.MT.L2_Replacement          244      0.00%      0.00%
system.ruby.L2Cache_Controller.MT.L2_Replacement_clean          290      0.00%      0.00%
system.ruby.L2Cache_Controller.MT.MEM_Inv            9      0.00%      0.00%
system.ruby.L2Cache_Controller.M_I.Mem_Ack        39498      0.00%      0.00%
system.ruby.L2Cache_Controller.M_I.MEM_Inv          875      0.00%      0.00%
system.ruby.L2Cache_Controller.MT_I.WB_Data          217      0.00%      0.00%
system.ruby.L2Cache_Controller.MT_I.Ack_all           36      0.00%      0.00%
system.ruby.L2Cache_Controller.MT_I.MEM_Inv            9      0.00%      0.00%
system.ruby.L2Cache_Controller.MCT_I.WB_Data          147      0.00%      0.00%
system.ruby.L2Cache_Controller.MCT_I.Ack_all          143      0.00%      0.00%
system.ruby.L2Cache_Controller.I_I.Ack           7397      0.00%      0.00%
system.ruby.L2Cache_Controller.I_I.Ack_all         6332      0.00%      0.00%
system.ruby.L2Cache_Controller.S_I.Ack            453      0.00%      0.00%
system.ruby.L2Cache_Controller.S_I.Ack_all          371      0.00%      0.00%
system.ruby.L2Cache_Controller.S_I.MEM_Inv           75      0.00%      0.00%
system.ruby.L2Cache_Controller.ISS.L1_GETS           11      0.00%      0.00%
system.ruby.L2Cache_Controller.ISS.Mem_Data        22079      0.00%      0.00%
system.ruby.L2Cache_Controller.IS.Mem_Data         8272      0.00%      0.00%
system.ruby.L2Cache_Controller.IM.Mem_Data        26402      0.00%      0.00%
system.ruby.L2Cache_Controller.SS_MB.L1_GETS           77      0.00%      0.00%
system.ruby.L2Cache_Controller.SS_MB.Exclusive_Unblock        23929      0.00%      0.00%
system.ruby.L2Cache_Controller.MT_MB.L1_GETS          610      0.00%      0.00%
system.ruby.L2Cache_Controller.MT_MB.L1_GETX            2      0.00%      0.00%
system.ruby.L2Cache_Controller.MT_MB.Exclusive_Unblock      8725453      0.00%      0.00%
system.ruby.L2Cache_Controller.MT_IIB.L1_GETS            5      0.00%      0.00%
system.ruby.L2Cache_Controller.MT_IIB.L1_GETX            1      0.00%      0.00%
system.ruby.L2Cache_Controller.MT_IIB.WB_Data        15246      0.00%      0.00%
system.ruby.L2Cache_Controller.MT_IIB.WB_Data_clean         9770      0.00%      0.00%
system.ruby.L2Cache_Controller.MT_IIB.Unblock           11      0.00%      0.00%
system.ruby.L2Cache_Controller.MT_IB.WB_Data            8      0.00%      0.00%
system.ruby.L2Cache_Controller.MT_IB.WB_Data_clean            3      0.00%      0.00%
system.ruby.L2Cache_Controller.MT_SB.Unblock        25016      0.00%      0.00%

---------- End Simulation Statistics   ----------
