
---------- Begin Simulation Statistics ----------
sim_seconds                                  1.213629                       # Number of seconds simulated
sim_ticks                                1213628998500                       # Number of ticks simulated
final_tick                               53637773234001                       # Number of ticks from beginning of simulation (restored from checkpoints and never reset)
sim_freq                                 1000000000000                       # Frequency of simulated ticks
host_inst_rate                                 116085                       # Simulator instruction rate (inst/s)
host_op_rate                                   155324                       # Simulator op (including micro ops) rate (op/s)
host_tick_rate                              260138856                       # Simulator tick rate (ticks/s)
host_mem_usage                                2305124                       # Number of bytes of host memory used
host_seconds                                  4665.31                       # Real time elapsed on the host
sim_insts                                   541570995                       # Number of instructions simulated
sim_ops                                     724637167                       # Number of ops (including micro ops) simulated
system.voltage_domain.voltage                       1                       # Voltage in Volts
system.clk_domain.clock                          1000                       # Clock period in ticks
system.mem_ctrls.bytes_read::ruby.dir_cntrl0    205828288                       # Number of bytes read from this memory
system.mem_ctrls.bytes_read::total          205828288                       # Number of bytes read from this memory
system.mem_ctrls.bytes_written::ruby.dir_cntrl0    102187904                       # Number of bytes written to this memory
system.mem_ctrls.bytes_written::total       102187904                       # Number of bytes written to this memory
system.mem_ctrls.num_reads::ruby.dir_cntrl0      3216067                       # Number of read requests responded to by this memory
system.mem_ctrls.num_reads::total             3216067                       # Number of read requests responded to by this memory
system.mem_ctrls.num_writes::ruby.dir_cntrl0      1596686                       # Number of write requests responded to by this memory
system.mem_ctrls.num_writes::total            1596686                       # Number of write requests responded to by this memory
system.mem_ctrls.bw_read::ruby.dir_cntrl0    169597371                       # Total read bandwidth from this memory (bytes/s)
system.mem_ctrls.bw_read::total             169597371                       # Total read bandwidth from this memory (bytes/s)
system.mem_ctrls.bw_write::ruby.dir_cntrl0     84200282                       # Write bandwidth from this memory (bytes/s)
system.mem_ctrls.bw_write::total             84200282                       # Write bandwidth from this memory (bytes/s)
system.mem_ctrls.bw_total::ruby.dir_cntrl0    253797653                       # Total bandwidth to/from this memory (bytes/s)
system.mem_ctrls.bw_total::total            253797653                       # Total bandwidth to/from this memory (bytes/s)
system.mem_ctrls.readReqs                     3216067                       # Number of read requests accepted
system.mem_ctrls.writeReqs                    1596686                       # Number of write requests accepted
system.mem_ctrls.readBursts                   3216067                       # Number of DRAM read bursts, including those serviced by the write queue
system.mem_ctrls.writeBursts                  1596686                       # Number of DRAM write bursts, including those merged in the write queue
system.mem_ctrls.bytesReadDRAM              205814336                       # Total number of bytes read from DRAM
system.mem_ctrls.bytesReadWrQ                   13952                       # Total number of bytes read from write queue
system.mem_ctrls.bytesWritten               102188160                       # Total number of bytes written to DRAM
system.mem_ctrls.bytesReadSys               205828288                       # Total read bytes from the system interface side
system.mem_ctrls.bytesWrittenSys            102187904                       # Total written bytes from the system interface side
system.mem_ctrls.servicedByWrQ                    218                       # Number of DRAM read bursts serviced by the write queue
system.mem_ctrls.mergedWrBursts                     0                       # Number of DRAM write bursts merged with an existing one
system.mem_ctrls.neitherReadNorWriteReqs            0                       # Number of requests that are neither read nor write
system.mem_ctrls.perBankRdBursts::0            202085                       # Per bank write bursts
system.mem_ctrls.perBankRdBursts::1            202295                       # Per bank write bursts
system.mem_ctrls.perBankRdBursts::2            200988                       # Per bank write bursts
system.mem_ctrls.perBankRdBursts::3            201743                       # Per bank write bursts
system.mem_ctrls.perBankRdBursts::4            198576                       # Per bank write bursts
system.mem_ctrls.perBankRdBursts::5            199290                       # Per bank write bursts
system.mem_ctrls.perBankRdBursts::6            202079                       # Per bank write bursts
system.mem_ctrls.perBankRdBursts::7            201055                       # Per bank write bursts
system.mem_ctrls.perBankRdBursts::8            201389                       # Per bank write bursts
system.mem_ctrls.perBankRdBursts::9            200702                       # Per bank write bursts
system.mem_ctrls.perBankRdBursts::10           200912                       # Per bank write bursts
system.mem_ctrls.perBankRdBursts::11           199281                       # Per bank write bursts
system.mem_ctrls.perBankRdBursts::12           202170                       # Per bank write bursts
system.mem_ctrls.perBankRdBursts::13           202624                       # Per bank write bursts
system.mem_ctrls.perBankRdBursts::14           199867                       # Per bank write bursts
system.mem_ctrls.perBankRdBursts::15           200793                       # Per bank write bursts
system.mem_ctrls.perBankWrBursts::0            100168                       # Per bank write bursts
system.mem_ctrls.perBankWrBursts::1            100701                       # Per bank write bursts
system.mem_ctrls.perBankWrBursts::2             99909                       # Per bank write bursts
system.mem_ctrls.perBankWrBursts::3             99854                       # Per bank write bursts
system.mem_ctrls.perBankWrBursts::4             98290                       # Per bank write bursts
system.mem_ctrls.perBankWrBursts::5             98919                       # Per bank write bursts
system.mem_ctrls.perBankWrBursts::6            100570                       # Per bank write bursts
system.mem_ctrls.perBankWrBursts::7            100016                       # Per bank write bursts
system.mem_ctrls.perBankWrBursts::8            100354                       # Per bank write bursts
system.mem_ctrls.perBankWrBursts::9             99864                       # Per bank write bursts
system.mem_ctrls.perBankWrBursts::10           100212                       # Per bank write bursts
system.mem_ctrls.perBankWrBursts::11            99444                       # Per bank write bursts
system.mem_ctrls.perBankWrBursts::12           100281                       # Per bank write bursts
system.mem_ctrls.perBankWrBursts::13           100252                       # Per bank write bursts
system.mem_ctrls.perBankWrBursts::14            98594                       # Per bank write bursts
system.mem_ctrls.perBankWrBursts::15            99262                       # Per bank write bursts
system.mem_ctrls.numRdRetry                         0                       # Number of times read queue was full causing retry
system.mem_ctrls.numWrRetry                         0                       # Number of times write queue was full causing retry
system.mem_ctrls.totGap                  1213628938500                       # Total gap between requests
system.mem_ctrls.readPktSize::0                     0                       # Read request sizes (log2)
system.mem_ctrls.readPktSize::1                     0                       # Read request sizes (log2)
system.mem_ctrls.readPktSize::2                     0                       # Read request sizes (log2)
system.mem_ctrls.readPktSize::3                     0                       # Read request sizes (log2)
system.mem_ctrls.readPktSize::4                     0                       # Read request sizes (log2)
system.mem_ctrls.readPktSize::5                     0                       # Read request sizes (log2)
system.mem_ctrls.readPktSize::6               3216067                       # Read request sizes (log2)
system.mem_ctrls.writePktSize::0                    0                       # Write request sizes (log2)
system.mem_ctrls.writePktSize::1                    0                       # Write request sizes (log2)
system.mem_ctrls.writePktSize::2                    0                       # Write request sizes (log2)
system.mem_ctrls.writePktSize::3                    0                       # Write request sizes (log2)
system.mem_ctrls.writePktSize::4                    0                       # Write request sizes (log2)
system.mem_ctrls.writePktSize::5                    0                       # Write request sizes (log2)
system.mem_ctrls.writePktSize::6              1596686                       # Write request sizes (log2)
system.mem_ctrls.rdQLenPdf::0                 3214774                       # What read queue length does an incoming req see
system.mem_ctrls.rdQLenPdf::1                    1075                       # What read queue length does an incoming req see
system.mem_ctrls.rdQLenPdf::2                       0                       # What read queue length does an incoming req see
system.mem_ctrls.rdQLenPdf::3                       0                       # What read queue length does an incoming req see
system.mem_ctrls.rdQLenPdf::4                       0                       # What read queue length does an incoming req see
system.mem_ctrls.rdQLenPdf::5                       0                       # What read queue length does an incoming req see
system.mem_ctrls.rdQLenPdf::6                       0                       # What read queue length does an incoming req see
system.mem_ctrls.rdQLenPdf::7                       0                       # What read queue length does an incoming req see
system.mem_ctrls.rdQLenPdf::8                       0                       # What read queue length does an incoming req see
system.mem_ctrls.rdQLenPdf::9                       0                       # What read queue length does an incoming req see
system.mem_ctrls.rdQLenPdf::10                      0                       # What read queue length does an incoming req see
system.mem_ctrls.rdQLenPdf::11                      0                       # What read queue length does an incoming req see
system.mem_ctrls.rdQLenPdf::12                      0                       # What read queue length does an incoming req see
system.mem_ctrls.rdQLenPdf::13                      0                       # What read queue length does an incoming req see
system.mem_ctrls.rdQLenPdf::14                      0                       # What read queue length does an incoming req see
system.mem_ctrls.rdQLenPdf::15                      0                       # What read queue length does an incoming req see
system.mem_ctrls.rdQLenPdf::16                      0                       # What read queue length does an incoming req see
system.mem_ctrls.rdQLenPdf::17                      0                       # What read queue length does an incoming req see
system.mem_ctrls.rdQLenPdf::18                      0                       # What read queue length does an incoming req see
system.mem_ctrls.rdQLenPdf::19                      0                       # What read queue length does an incoming req see
system.mem_ctrls.rdQLenPdf::20                      0                       # What read queue length does an incoming req see
system.mem_ctrls.rdQLenPdf::21                      0                       # What read queue length does an incoming req see
system.mem_ctrls.rdQLenPdf::22                      0                       # What read queue length does an incoming req see
system.mem_ctrls.rdQLenPdf::23                      0                       # What read queue length does an incoming req see
system.mem_ctrls.rdQLenPdf::24                      0                       # What read queue length does an incoming req see
system.mem_ctrls.rdQLenPdf::25                      0                       # What read queue length does an incoming req see
system.mem_ctrls.rdQLenPdf::26                      0                       # What read queue length does an incoming req see
system.mem_ctrls.rdQLenPdf::27                      0                       # What read queue length does an incoming req see
system.mem_ctrls.rdQLenPdf::28                      0                       # What read queue length does an incoming req see
system.mem_ctrls.rdQLenPdf::29                      0                       # What read queue length does an incoming req see
system.mem_ctrls.rdQLenPdf::30                      0                       # What read queue length does an incoming req see
system.mem_ctrls.rdQLenPdf::31                      0                       # What read queue length does an incoming req see
system.mem_ctrls.wrQLenPdf::0                       0                       # What write queue length does an incoming req see
system.mem_ctrls.wrQLenPdf::1                       0                       # What write queue length does an incoming req see
system.mem_ctrls.wrQLenPdf::2                       0                       # What write queue length does an incoming req see
system.mem_ctrls.wrQLenPdf::3                       0                       # What write queue length does an incoming req see
system.mem_ctrls.wrQLenPdf::4                       0                       # What write queue length does an incoming req see
system.mem_ctrls.wrQLenPdf::5                       0                       # What write queue length does an incoming req see
system.mem_ctrls.wrQLenPdf::6                       0                       # What write queue length does an incoming req see
system.mem_ctrls.wrQLenPdf::7                       0                       # What write queue length does an incoming req see
system.mem_ctrls.wrQLenPdf::8                       0                       # What write queue length does an incoming req see
system.mem_ctrls.wrQLenPdf::9                       0                       # What write queue length does an incoming req see
system.mem_ctrls.wrQLenPdf::10                      0                       # What write queue length does an incoming req see
system.mem_ctrls.wrQLenPdf::11                      0                       # What write queue length does an incoming req see
system.mem_ctrls.wrQLenPdf::12                      0                       # What write queue length does an incoming req see
system.mem_ctrls.wrQLenPdf::13                      0                       # What write queue length does an incoming req see
system.mem_ctrls.wrQLenPdf::14                      0                       # What write queue length does an incoming req see
system.mem_ctrls.wrQLenPdf::15                  18170                       # What write queue length does an incoming req see
system.mem_ctrls.wrQLenPdf::16                  22916                       # What write queue length does an incoming req see
system.mem_ctrls.wrQLenPdf::17                  75756                       # What write queue length does an incoming req see
system.mem_ctrls.wrQLenPdf::18                  95464                       # What write queue length does an incoming req see
system.mem_ctrls.wrQLenPdf::19                  98586                       # What write queue length does an incoming req see
system.mem_ctrls.wrQLenPdf::20                  99446                       # What write queue length does an incoming req see
system.mem_ctrls.wrQLenPdf::21                  99526                       # What write queue length does an incoming req see
system.mem_ctrls.wrQLenPdf::22                  99625                       # What write queue length does an incoming req see
system.mem_ctrls.wrQLenPdf::23                  99470                       # What write queue length does an incoming req see
system.mem_ctrls.wrQLenPdf::24                  99763                       # What write queue length does an incoming req see
system.mem_ctrls.wrQLenPdf::25                  99694                       # What write queue length does an incoming req see
system.mem_ctrls.wrQLenPdf::26                  99792                       # What write queue length does an incoming req see
system.mem_ctrls.wrQLenPdf::27                  99054                       # What write queue length does an incoming req see
system.mem_ctrls.wrQLenPdf::28                  98762                       # What write queue length does an incoming req see
system.mem_ctrls.wrQLenPdf::29                  98387                       # What write queue length does an incoming req see
system.mem_ctrls.wrQLenPdf::30                  98070                       # What write queue length does an incoming req see
system.mem_ctrls.wrQLenPdf::31                  96951                       # What write queue length does an incoming req see
system.mem_ctrls.wrQLenPdf::32                  96819                       # What write queue length does an incoming req see
system.mem_ctrls.wrQLenPdf::33                    342                       # What write queue length does an incoming req see
system.mem_ctrls.wrQLenPdf::34                     70                       # What write queue length does an incoming req see
system.mem_ctrls.wrQLenPdf::35                     14                       # What write queue length does an incoming req see
system.mem_ctrls.wrQLenPdf::36                      6                       # What write queue length does an incoming req see
system.mem_ctrls.wrQLenPdf::37                      3                       # What write queue length does an incoming req see
system.mem_ctrls.wrQLenPdf::38                      0                       # What write queue length does an incoming req see
system.mem_ctrls.wrQLenPdf::39                      0                       # What write queue length does an incoming req see
system.mem_ctrls.wrQLenPdf::40                      0                       # What write queue length does an incoming req see
system.mem_ctrls.wrQLenPdf::41                      0                       # What write queue length does an incoming req see
system.mem_ctrls.wrQLenPdf::42                      0                       # What write queue length does an incoming req see
system.mem_ctrls.wrQLenPdf::43                      0                       # What write queue length does an incoming req see
system.mem_ctrls.wrQLenPdf::44                      0                       # What write queue length does an incoming req see
system.mem_ctrls.wrQLenPdf::45                      0                       # What write queue length does an incoming req see
system.mem_ctrls.wrQLenPdf::46                      0                       # What write queue length does an incoming req see
system.mem_ctrls.wrQLenPdf::47                      0                       # What write queue length does an incoming req see
system.mem_ctrls.wrQLenPdf::48                      0                       # What write queue length does an incoming req see
system.mem_ctrls.wrQLenPdf::49                      0                       # What write queue length does an incoming req see
system.mem_ctrls.wrQLenPdf::50                      0                       # What write queue length does an incoming req see
system.mem_ctrls.wrQLenPdf::51                      0                       # What write queue length does an incoming req see
system.mem_ctrls.wrQLenPdf::52                      0                       # What write queue length does an incoming req see
system.mem_ctrls.wrQLenPdf::53                      0                       # What write queue length does an incoming req see
system.mem_ctrls.wrQLenPdf::54                      0                       # What write queue length does an incoming req see
system.mem_ctrls.wrQLenPdf::55                      0                       # What write queue length does an incoming req see
system.mem_ctrls.wrQLenPdf::56                      0                       # What write queue length does an incoming req see
system.mem_ctrls.wrQLenPdf::57                      0                       # What write queue length does an incoming req see
system.mem_ctrls.wrQLenPdf::58                      0                       # What write queue length does an incoming req see
system.mem_ctrls.wrQLenPdf::59                      0                       # What write queue length does an incoming req see
system.mem_ctrls.wrQLenPdf::60                      0                       # What write queue length does an incoming req see
system.mem_ctrls.wrQLenPdf::61                      0                       # What write queue length does an incoming req see
system.mem_ctrls.wrQLenPdf::62                      0                       # What write queue length does an incoming req see
system.mem_ctrls.wrQLenPdf::63                      0                       # What write queue length does an incoming req see
system.mem_ctrls.bytesPerActivate::samples      2092243                       # Bytes accessed per row activation
system.mem_ctrls.bytesPerActivate::mean    147.211505                       # Bytes accessed per row activation
system.mem_ctrls.bytesPerActivate::gmean    93.339247                       # Bytes accessed per row activation
system.mem_ctrls.bytesPerActivate::stdev   220.145080                       # Bytes accessed per row activation
system.mem_ctrls.bytesPerActivate::0-127      1535429     73.39%     73.39% # Bytes accessed per row activation
system.mem_ctrls.bytesPerActivate::128-255       299778     14.33%     87.71% # Bytes accessed per row activation
system.mem_ctrls.bytesPerActivate::256-383        63172      3.02%     90.73% # Bytes accessed per row activation
system.mem_ctrls.bytesPerActivate::384-511        32947      1.57%     92.31% # Bytes accessed per row activation
system.mem_ctrls.bytesPerActivate::512-639        29063      1.39%     93.70% # Bytes accessed per row activation
system.mem_ctrls.bytesPerActivate::640-767        20341      0.97%     94.67% # Bytes accessed per row activation
system.mem_ctrls.bytesPerActivate::768-895        16874      0.81%     95.48% # Bytes accessed per row activation
system.mem_ctrls.bytesPerActivate::896-1023        15860      0.76%     96.23% # Bytes accessed per row activation
system.mem_ctrls.bytesPerActivate::1024-1151        78779      3.77%    100.00% # Bytes accessed per row activation
system.mem_ctrls.bytesPerActivate::total      2092243                       # Bytes accessed per row activation
system.mem_ctrls.rdPerTurnAround::samples        96809                       # Reads before turning the bus around for writes
system.mem_ctrls.rdPerTurnAround::mean      33.218502                       # Reads before turning the bus around for writes
system.mem_ctrls.rdPerTurnAround::stdev     28.893278                       # Reads before turning the bus around for writes
system.mem_ctrls.rdPerTurnAround::0-31          55067     56.88%     56.88% # Reads before turning the bus around for writes
system.mem_ctrls.rdPerTurnAround::32-63         32703     33.78%     90.66% # Reads before turning the bus around for writes
system.mem_ctrls.rdPerTurnAround::64-95          5891      6.09%     96.75% # Reads before turning the bus around for writes
system.mem_ctrls.rdPerTurnAround::96-127         1496      1.55%     98.29% # Reads before turning the bus around for writes
system.mem_ctrls.rdPerTurnAround::128-159          866      0.89%     99.19% # Reads before turning the bus around for writes
system.mem_ctrls.rdPerTurnAround::160-191          264      0.27%     99.46% # Reads before turning the bus around for writes
system.mem_ctrls.rdPerTurnAround::192-223          191      0.20%     99.66% # Reads before turning the bus around for writes
system.mem_ctrls.rdPerTurnAround::224-255          198      0.20%     99.86% # Reads before turning the bus around for writes
system.mem_ctrls.rdPerTurnAround::256-287           83      0.09%     99.95% # Reads before turning the bus around for writes
system.mem_ctrls.rdPerTurnAround::288-319           19      0.02%     99.97% # Reads before turning the bus around for writes
system.mem_ctrls.rdPerTurnAround::320-351           11      0.01%     99.98% # Reads before turning the bus around for writes
system.mem_ctrls.rdPerTurnAround::384-415            2      0.00%     99.98% # Reads before turning the bus around for writes
system.mem_ctrls.rdPerTurnAround::416-447            1      0.00%     99.98% # Reads before turning the bus around for writes
system.mem_ctrls.rdPerTurnAround::448-479            3      0.00%     99.99% # Reads before turning the bus around for writes
system.mem_ctrls.rdPerTurnAround::480-511            4      0.00%     99.99% # Reads before turning the bus around for writes
system.mem_ctrls.rdPerTurnAround::512-543            7      0.01%    100.00% # Reads before turning the bus around for writes
system.mem_ctrls.rdPerTurnAround::544-575            1      0.00%    100.00% # Reads before turning the bus around for writes
system.mem_ctrls.rdPerTurnAround::704-735            1      0.00%    100.00% # Reads before turning the bus around for writes
system.mem_ctrls.rdPerTurnAround::768-799            1      0.00%    100.00% # Reads before turning the bus around for writes
system.mem_ctrls.rdPerTurnAround::total         96809                       # Reads before turning the bus around for writes
system.mem_ctrls.wrPerTurnAround::samples        96809                       # Writes before turning the bus around for reads
system.mem_ctrls.wrPerTurnAround::mean      16.493198                       # Writes before turning the bus around for reads
system.mem_ctrls.wrPerTurnAround::gmean     16.467424                       # Writes before turning the bus around for reads
system.mem_ctrls.wrPerTurnAround::stdev      0.956321                       # Writes before turning the bus around for reads
system.mem_ctrls.wrPerTurnAround::16            73372     75.79%     75.79% # Writes before turning the bus around for reads
system.mem_ctrls.wrPerTurnAround::17             4090      4.22%     80.02% # Writes before turning the bus around for reads
system.mem_ctrls.wrPerTurnAround::18            15937     16.46%     96.48% # Writes before turning the bus around for reads
system.mem_ctrls.wrPerTurnAround::19             2503      2.59%     99.06% # Writes before turning the bus around for reads
system.mem_ctrls.wrPerTurnAround::20              570      0.59%     99.65% # Writes before turning the bus around for reads
system.mem_ctrls.wrPerTurnAround::21              184      0.19%     99.84% # Writes before turning the bus around for reads
system.mem_ctrls.wrPerTurnAround::22               85      0.09%     99.93% # Writes before turning the bus around for reads
system.mem_ctrls.wrPerTurnAround::23               32      0.03%     99.96% # Writes before turning the bus around for reads
system.mem_ctrls.wrPerTurnAround::24               16      0.02%     99.98% # Writes before turning the bus around for reads
system.mem_ctrls.wrPerTurnAround::25               10      0.01%     99.99% # Writes before turning the bus around for reads
system.mem_ctrls.wrPerTurnAround::26                3      0.00%     99.99% # Writes before turning the bus around for reads
system.mem_ctrls.wrPerTurnAround::27                3      0.00%    100.00% # Writes before turning the bus around for reads
system.mem_ctrls.wrPerTurnAround::28                2      0.00%    100.00% # Writes before turning the bus around for reads
system.mem_ctrls.wrPerTurnAround::31                1      0.00%    100.00% # Writes before turning the bus around for reads
system.mem_ctrls.wrPerTurnAround::35                1      0.00%    100.00% # Writes before turning the bus around for reads
system.mem_ctrls.wrPerTurnAround::total         96809                       # Writes before turning the bus around for reads
system.mem_ctrls.totQLat                  50200861500                       # Total ticks spent queuing
system.mem_ctrls.totMemAccLat            110498030250                       # Total ticks spent from burst creation until serviced by the DRAM
system.mem_ctrls.totBusLat                16079245000                       # Total ticks spent in databus transfers
system.mem_ctrls.avgQLat                     15610.45                       # Average queueing delay per DRAM burst
system.mem_ctrls.avgBusLat                    5000.00                       # Average bus latency per DRAM burst
system.mem_ctrls.avgMemAccLat                34360.45                       # Average memory access latency per DRAM burst
system.mem_ctrls.avgRdBW                       169.59                       # Average DRAM read bandwidth in MiByte/s
system.mem_ctrls.avgWrBW                        84.20                       # Average achieved write bandwidth in MiByte/s
system.mem_ctrls.avgRdBWSys                    169.60                       # Average system read bandwidth in MiByte/s
system.mem_ctrls.avgWrBWSys                     84.20                       # Average system write bandwidth in MiByte/s
system.mem_ctrls.peakBW                      12800.00                       # Theoretical peak bandwidth in MiByte/s
system.mem_ctrls.busUtil                         1.98                       # Data bus utilization in percentage
system.mem_ctrls.busUtilRead                     1.32                       # Data bus utilization in percentage for reads
system.mem_ctrls.busUtilWrite                    0.66                       # Data bus utilization in percentage for writes
system.mem_ctrls.avgRdQLen                       1.00                       # Average read queue length when enqueuing
system.mem_ctrls.avgWrQLen                      25.26                       # Average write queue length when enqueuing
system.mem_ctrls.readRowHits                  2035904                       # Number of row buffer hits during reads
system.mem_ctrls.writeRowHits                  684388                       # Number of row buffer hits during writes
system.mem_ctrls.readRowHitRate                 63.31                       # Row buffer hit rate for reads
system.mem_ctrls.writeRowHitRate                42.86                       # Row buffer hit rate for writes
system.mem_ctrls.avgGap                     252169.38                       # Average gap between requests
system.mem_ctrls.pageHitRate                    56.53                       # Row buffer hit rate, read and write combined
system.mem_ctrls_0.actEnergy               7961322600                       # Energy for activate commands per rank (pJ)
system.mem_ctrls_0.preEnergy               4343975625                       # Energy for precharge commands per rank (pJ)
system.mem_ctrls_0.readEnergy             12692167800                       # Energy for read commands per rank (pJ)
system.mem_ctrls_0.writeEnergy             5199558480                       # Energy for write commands per rank (pJ)
system.mem_ctrls_0.refreshEnergy          79750344960                       # Energy for refresh commands per rank (pJ)
system.mem_ctrls_0.actBackEnergy         287811366255                       # Energy for active background per rank (pJ)
system.mem_ctrls_0.preBackEnergy         480139193250                       # Energy for precharge background per rank (pJ)
system.mem_ctrls_0.totalEnergy           877897928970                       # Total energy per rank (pJ)
system.mem_ctrls_0.averagePower            718.993917                       # Core power per rank (mW)
system.mem_ctrls_0.memoryStateTime::IDLE 793115082500                       # Time in different power states
system.mem_ctrls_0.memoryStateTime::REF   40525680000                       # Time in different power states
system.mem_ctrls_0.memoryStateTime::PRE_PDN            0                       # Time in different power states
system.mem_ctrls_0.memoryStateTime::ACT  379983088750                       # Time in different power states
system.mem_ctrls_0.memoryStateTime::ACT_PDN            0                       # Time in different power states
system.mem_ctrls_1.actEnergy               7940887920                       # Energy for activate commands per rank (pJ)
system.mem_ctrls_1.preEnergy               4332825750                       # Energy for precharge commands per rank (pJ)
system.mem_ctrls_1.readEnergy             12683408400                       # Energy for read commands per rank (pJ)
system.mem_ctrls_1.writeEnergy             5194400400                       # Energy for write commands per rank (pJ)
system.mem_ctrls_1.refreshEnergy          79750344960                       # Energy for refresh commands per rank (pJ)
system.mem_ctrls_1.actBackEnergy         287383941495                       # Energy for active background per rank (pJ)
system.mem_ctrls_1.preBackEnergy         480514127250                       # Energy for precharge background per rank (pJ)
system.mem_ctrls_1.totalEnergy           877799936175                       # Total energy per rank (pJ)
system.mem_ctrls_1.averagePower            718.913662                       # Core power per rank (mW)
system.mem_ctrls_1.memoryStateTime::IDLE 793598013500                       # Time in different power states
system.mem_ctrls_1.memoryStateTime::REF   40525680000                       # Time in different power states
system.mem_ctrls_1.memoryStateTime::PRE_PDN            0                       # Time in different power states
system.mem_ctrls_1.memoryStateTime::ACT  379504558500                       # Time in different power states
system.mem_ctrls_1.memoryStateTime::ACT_PDN            0                       # Time in different power states
system.cpu_voltage_domain.voltage                   1                       # Voltage in Volts
system.cpu_clk_domain.clock                       500                       # Clock period in ticks
system.cpu0.apic_clk_domain.clock                8000                       # Clock period in ticks
system.cpu0.numCycles                      2428677125                       # number of cpu cycles simulated
system.cpu0.numWorkItemsStarted                     0                       # number of work items this cpu started
system.cpu0.numWorkItemsCompleted                   0                       # number of work items this cpu completed
system.cpu0.kern.inst.arm                           0                       # number of arm instructions executed
system.cpu0.kern.inst.quiesce                       0                       # number of quiesce instructions executed
system.cpu0.committedInsts                  534031052                       # Number of instructions committed
system.cpu0.committedOps                    709570179                       # Number of ops (including micro ops) committed
system.cpu0.num_int_alu_accesses            509182673                       # Number of integer alu accesses
system.cpu0.num_fp_alu_accesses             331101068                       # Number of float alu accesses
system.cpu0.num_func_calls                     447299                       # number of times a function call or return occured
system.cpu0.num_conditional_control_insts     31487110                       # number of instructions that are conditional controls
system.cpu0.num_int_insts                   509182673                       # number of integer instructions
system.cpu0.num_fp_insts                    331101068                       # number of float instructions
system.cpu0.num_int_register_reads         1070884117                       # number of times the integer registers were read
system.cpu0.num_int_register_writes         340152727                       # number of times the integer registers were written
system.cpu0.num_fp_register_reads           564014582                       # number of times the floating registers were read
system.cpu0.num_fp_register_writes          276695748                       # number of times the floating registers were written
system.cpu0.num_cc_register_reads           220478815                       # number of times the CC registers were read
system.cpu0.num_cc_register_writes          241481407                       # number of times the CC registers were written
system.cpu0.num_mem_refs                    152924646                       # number of memory refs
system.cpu0.num_load_insts                   94814849                       # Number of load instructions
system.cpu0.num_store_insts                  58109797                       # Number of store instructions
system.cpu0.num_idle_cycles              10737780.312737                       # Number of idle cycles
system.cpu0.num_busy_cycles              2417939344.687263                       # Number of busy cycles
system.cpu0.not_idle_fraction                0.995579                       # Percentage of non-idle cycles
system.cpu0.idle_fraction                    0.004421                       # Percentage of idle cycles
system.cpu0.Branches                         33916935                       # Number of branches fetched
system.cpu0.op_class::No_OpClass               957531      0.13%      0.13% # Class of executed instruction
system.cpu0.op_class::IntAlu                444376481     62.63%     62.76% # Class of executed instruction
system.cpu0.op_class::IntMult                   24929      0.00%     62.76% # Class of executed instruction
system.cpu0.op_class::IntDiv                   145164      0.02%     62.78% # Class of executed instruction
system.cpu0.op_class::FloatAdd              111149730     15.66%     78.45% # Class of executed instruction
system.cpu0.op_class::FloatCmp                      0      0.00%     78.45% # Class of executed instruction
system.cpu0.op_class::FloatCvt                      0      0.00%     78.45% # Class of executed instruction
system.cpu0.op_class::FloatMult                     0      0.00%     78.45% # Class of executed instruction
system.cpu0.op_class::FloatDiv                      0      0.00%     78.45% # Class of executed instruction
system.cpu0.op_class::FloatSqrt                     0      0.00%     78.45% # Class of executed instruction
system.cpu0.op_class::SimdAdd                       0      0.00%     78.45% # Class of executed instruction
system.cpu0.op_class::SimdAddAcc                    0      0.00%     78.45% # Class of executed instruction
system.cpu0.op_class::SimdAlu                       0      0.00%     78.45% # Class of executed instruction
system.cpu0.op_class::SimdCmp                       0      0.00%     78.45% # Class of executed instruction
system.cpu0.op_class::SimdCvt                       0      0.00%     78.45% # Class of executed instruction
system.cpu0.op_class::SimdMisc                      0      0.00%     78.45% # Class of executed instruction
system.cpu0.op_class::SimdMult                      0      0.00%     78.45% # Class of executed instruction
system.cpu0.op_class::SimdMultAcc                   0      0.00%     78.45% # Class of executed instruction
system.cpu0.op_class::SimdShift                     0      0.00%     78.45% # Class of executed instruction
system.cpu0.op_class::SimdShiftAcc                  0      0.00%     78.45% # Class of executed instruction
system.cpu0.op_class::SimdSqrt                      0      0.00%     78.45% # Class of executed instruction
system.cpu0.op_class::SimdFloatAdd                  0      0.00%     78.45% # Class of executed instruction
system.cpu0.op_class::SimdFloatAlu                  0      0.00%     78.45% # Class of executed instruction
system.cpu0.op_class::SimdFloatCmp                  0      0.00%     78.45% # Class of executed instruction
system.cpu0.op_class::SimdFloatCvt                  0      0.00%     78.45% # Class of executed instruction
system.cpu0.op_class::SimdFloatDiv                  0      0.00%     78.45% # Class of executed instruction
system.cpu0.op_class::SimdFloatMisc                 0      0.00%     78.45% # Class of executed instruction
system.cpu0.op_class::SimdFloatMult                 0      0.00%     78.45% # Class of executed instruction
system.cpu0.op_class::SimdFloatMultAcc              0      0.00%     78.45% # Class of executed instruction
system.cpu0.op_class::SimdFloatSqrt                 0      0.00%     78.45% # Class of executed instruction
system.cpu0.op_class::MemRead                94814849     13.36%     91.81% # Class of executed instruction
system.cpu0.op_class::MemWrite               58109797      8.19%    100.00% # Class of executed instruction
system.cpu0.op_class::IprAccess                     0      0.00%    100.00% # Class of executed instruction
system.cpu0.op_class::InstPrefetch                  0      0.00%    100.00% # Class of executed instruction
system.cpu0.op_class::total                 709578481                       # Class of executed instruction
system.cpu1.apic_clk_domain.clock                8000                       # Clock period in ticks
system.cpu1.numCycles                      2421312601                       # number of cpu cycles simulated
system.cpu1.numWorkItemsStarted                     0                       # number of work items this cpu started
system.cpu1.numWorkItemsCompleted                   0                       # number of work items this cpu completed
system.cpu1.kern.inst.arm                           0                       # number of arm instructions executed
system.cpu1.kern.inst.quiesce                       0                       # number of quiesce instructions executed
system.cpu1.committedInsts                     795304                       # Number of instructions committed
system.cpu1.committedOps                      1721416                       # Number of ops (including micro ops) committed
system.cpu1.num_int_alu_accesses              1684697                       # Number of integer alu accesses
system.cpu1.num_fp_alu_accesses                     0                       # Number of float alu accesses
system.cpu1.num_func_calls                      48378                       # number of times a function call or return occured
system.cpu1.num_conditional_control_insts       118730                       # number of instructions that are conditional controls
system.cpu1.num_int_insts                     1684697                       # number of integer instructions
system.cpu1.num_fp_insts                            0                       # number of float instructions
system.cpu1.num_int_register_reads            3420887                       # number of times the integer registers were read
system.cpu1.num_int_register_writes           1395814                       # number of times the integer registers were written
system.cpu1.num_fp_register_reads                   0                       # number of times the floating registers were read
system.cpu1.num_fp_register_writes                  0                       # number of times the floating registers were written
system.cpu1.num_cc_register_reads              951211                       # number of times the CC registers were read
system.cpu1.num_cc_register_writes             505705                       # number of times the CC registers were written
system.cpu1.num_mem_refs                       413126                       # number of memory refs
system.cpu1.num_load_insts                     257186                       # Number of load instructions
system.cpu1.num_store_insts                    155940                       # Number of store instructions
system.cpu1.num_idle_cycles              2417783753.884296                       # Number of idle cycles
system.cpu1.num_busy_cycles              3528847.115703                       # Number of busy cycles
system.cpu1.not_idle_fraction                0.001457                       # Percentage of non-idle cycles
system.cpu1.idle_fraction                    0.998543                       # Percentage of idle cycles
system.cpu1.Branches                           182640                       # Number of branches fetched
system.cpu1.op_class::No_OpClass                30747      1.79%      1.79% # Class of executed instruction
system.cpu1.op_class::IntAlu                  1263352     73.39%     75.18% # Class of executed instruction
system.cpu1.op_class::IntMult                    3582      0.21%     75.38% # Class of executed instruction
system.cpu1.op_class::IntDiv                    10612      0.62%     76.00% # Class of executed instruction
system.cpu1.op_class::FloatAdd                      0      0.00%     76.00% # Class of executed instruction
system.cpu1.op_class::FloatCmp                      0      0.00%     76.00% # Class of executed instruction
system.cpu1.op_class::FloatCvt                      0      0.00%     76.00% # Class of executed instruction
system.cpu1.op_class::FloatMult                     0      0.00%     76.00% # Class of executed instruction
system.cpu1.op_class::FloatDiv                      0      0.00%     76.00% # Class of executed instruction
system.cpu1.op_class::FloatSqrt                     0      0.00%     76.00% # Class of executed instruction
system.cpu1.op_class::SimdAdd                       0      0.00%     76.00% # Class of executed instruction
system.cpu1.op_class::SimdAddAcc                    0      0.00%     76.00% # Class of executed instruction
system.cpu1.op_class::SimdAlu                       0      0.00%     76.00% # Class of executed instruction
system.cpu1.op_class::SimdCmp                       0      0.00%     76.00% # Class of executed instruction
system.cpu1.op_class::SimdCvt                       0      0.00%     76.00% # Class of executed instruction
system.cpu1.op_class::SimdMisc                      0      0.00%     76.00% # Class of executed instruction
system.cpu1.op_class::SimdMult                      0      0.00%     76.00% # Class of executed instruction
system.cpu1.op_class::SimdMultAcc                   0      0.00%     76.00% # Class of executed instruction
system.cpu1.op_class::SimdShift                     0      0.00%     76.00% # Class of executed instruction
system.cpu1.op_class::SimdShiftAcc                  0      0.00%     76.00% # Class of executed instruction
system.cpu1.op_class::SimdSqrt                      0      0.00%     76.00% # Class of executed instruction
system.cpu1.op_class::SimdFloatAdd                  0      0.00%     76.00% # Class of executed instruction
system.cpu1.op_class::SimdFloatAlu                  0      0.00%     76.00% # Class of executed instruction
system.cpu1.op_class::SimdFloatCmp                  0      0.00%     76.00% # Class of executed instruction
system.cpu1.op_class::SimdFloatCvt                  0      0.00%     76.00% # Class of executed instruction
system.cpu1.op_class::SimdFloatDiv                  0      0.00%     76.00% # Class of executed instruction
system.cpu1.op_class::SimdFloatMisc                 0      0.00%     76.00% # Class of executed instruction
system.cpu1.op_class::SimdFloatMult                 0      0.00%     76.00% # Class of executed instruction
system.cpu1.op_class::SimdFloatMultAcc              0      0.00%     76.00% # Class of executed instruction
system.cpu1.op_class::SimdFloatSqrt                 0      0.00%     76.00% # Class of executed instruction
system.cpu1.op_class::MemRead                  257186     14.94%     90.94% # Class of executed instruction
system.cpu1.op_class::MemWrite                 155940      9.06%    100.00% # Class of executed instruction
system.cpu1.op_class::IprAccess                     0      0.00%    100.00% # Class of executed instruction
system.cpu1.op_class::InstPrefetch                  0      0.00%    100.00% # Class of executed instruction
system.cpu1.op_class::total                   1721419                       # Class of executed instruction
system.cpu2.apic_clk_domain.clock                8000                       # Clock period in ticks
system.cpu2.numCycles                      2425251644                       # number of cpu cycles simulated
system.cpu2.numWorkItemsStarted                     0                       # number of work items this cpu started
system.cpu2.numWorkItemsCompleted                   0                       # number of work items this cpu completed
system.cpu2.kern.inst.arm                           0                       # number of arm instructions executed
system.cpu2.kern.inst.quiesce                       0                       # number of quiesce instructions executed
system.cpu2.committedInsts                    2995195                       # Number of instructions committed
system.cpu2.committedOps                      5954450                       # Number of ops (including micro ops) committed
system.cpu2.num_int_alu_accesses              5850190                       # Number of integer alu accesses
system.cpu2.num_fp_alu_accesses                  1826                       # Number of float alu accesses
system.cpu2.num_func_calls                     154628                       # number of times a function call or return occured
system.cpu2.num_conditional_control_insts       499529                       # number of instructions that are conditional controls
system.cpu2.num_int_insts                     5850190                       # number of integer instructions
system.cpu2.num_fp_insts                         1826                       # number of float instructions
system.cpu2.num_int_register_reads           11658917                       # number of times the integer registers were read
system.cpu2.num_int_register_writes           4752628                       # number of times the integer registers were written
system.cpu2.num_fp_register_reads                3068                       # number of times the floating registers were read
system.cpu2.num_fp_register_writes               1448                       # number of times the floating registers were written
system.cpu2.num_cc_register_reads             3707078                       # number of times the CC registers were read
system.cpu2.num_cc_register_writes            2025684                       # number of times the CC registers were written
system.cpu2.num_mem_refs                      1348619                       # number of memory refs
system.cpu2.num_load_insts                     873620                       # Number of load instructions
system.cpu2.num_store_insts                    474999                       # Number of store instructions
system.cpu2.num_idle_cycles              2410799516.903013                       # Number of idle cycles
system.cpu2.num_busy_cycles              14452127.096987                       # Number of busy cycles
system.cpu2.not_idle_fraction                0.005959                       # Percentage of non-idle cycles
system.cpu2.idle_fraction                    0.994041                       # Percentage of idle cycles
system.cpu2.Branches                           682847                       # Number of branches fetched
system.cpu2.op_class::No_OpClass                38211      0.64%      0.64% # Class of executed instruction
system.cpu2.op_class::IntAlu                  4548664     76.39%     77.03% # Class of executed instruction
system.cpu2.op_class::IntMult                    5566      0.09%     77.13% # Class of executed instruction
system.cpu2.op_class::IntDiv                    12105      0.20%     77.33% # Class of executed instruction
system.cpu2.op_class::FloatAdd                   1376      0.02%     77.35% # Class of executed instruction
system.cpu2.op_class::FloatCmp                      0      0.00%     77.35% # Class of executed instruction
system.cpu2.op_class::FloatCvt                      0      0.00%     77.35% # Class of executed instruction
system.cpu2.op_class::FloatMult                     0      0.00%     77.35% # Class of executed instruction
system.cpu2.op_class::FloatDiv                      0      0.00%     77.35% # Class of executed instruction
system.cpu2.op_class::FloatSqrt                     0      0.00%     77.35% # Class of executed instruction
system.cpu2.op_class::SimdAdd                       0      0.00%     77.35% # Class of executed instruction
system.cpu2.op_class::SimdAddAcc                    0      0.00%     77.35% # Class of executed instruction
system.cpu2.op_class::SimdAlu                       0      0.00%     77.35% # Class of executed instruction
system.cpu2.op_class::SimdCmp                       0      0.00%     77.35% # Class of executed instruction
system.cpu2.op_class::SimdCvt                       0      0.00%     77.35% # Class of executed instruction
system.cpu2.op_class::SimdMisc                      0      0.00%     77.35% # Class of executed instruction
system.cpu2.op_class::SimdMult                      0      0.00%     77.35% # Class of executed instruction
system.cpu2.op_class::SimdMultAcc                   0      0.00%     77.35% # Class of executed instruction
system.cpu2.op_class::SimdShift                     0      0.00%     77.35% # Class of executed instruction
system.cpu2.op_class::SimdShiftAcc                  0      0.00%     77.35% # Class of executed instruction
system.cpu2.op_class::SimdSqrt                      0      0.00%     77.35% # Class of executed instruction
system.cpu2.op_class::SimdFloatAdd                  0      0.00%     77.35% # Class of executed instruction
system.cpu2.op_class::SimdFloatAlu                  0      0.00%     77.35% # Class of executed instruction
system.cpu2.op_class::SimdFloatCmp                  0      0.00%     77.35% # Class of executed instruction
system.cpu2.op_class::SimdFloatCvt                  0      0.00%     77.35% # Class of executed instruction
system.cpu2.op_class::SimdFloatDiv                  0      0.00%     77.35% # Class of executed instruction
system.cpu2.op_class::SimdFloatMisc                 0      0.00%     77.35% # Class of executed instruction
system.cpu2.op_class::SimdFloatMult                 0      0.00%     77.35% # Class of executed instruction
system.cpu2.op_class::SimdFloatMultAcc              0      0.00%     77.35% # Class of executed instruction
system.cpu2.op_class::SimdFloatSqrt                 0      0.00%     77.35% # Class of executed instruction
system.cpu2.op_class::MemRead                  873620     14.67%     92.02% # Class of executed instruction
system.cpu2.op_class::MemWrite                 474999      7.98%    100.00% # Class of executed instruction
system.cpu2.op_class::IprAccess                     0      0.00%    100.00% # Class of executed instruction
system.cpu2.op_class::InstPrefetch                  0      0.00%    100.00% # Class of executed instruction
system.cpu2.op_class::total                   5954541                       # Class of executed instruction
system.cpu3.apic_clk_domain.clock                8000                       # Clock period in ticks
system.cpu3.numCycles                      2425920699                       # number of cpu cycles simulated
system.cpu3.numWorkItemsStarted                     0                       # number of work items this cpu started
system.cpu3.numWorkItemsCompleted                   0                       # number of work items this cpu completed
system.cpu3.kern.inst.arm                           0                       # number of arm instructions executed
system.cpu3.kern.inst.quiesce                       0                       # number of quiesce instructions executed
system.cpu3.committedInsts                     918213                       # Number of instructions committed
system.cpu3.committedOps                      1969671                       # Number of ops (including micro ops) committed
system.cpu3.num_int_alu_accesses              1926267                       # Number of integer alu accesses
system.cpu3.num_fp_alu_accesses                    39                       # Number of float alu accesses
system.cpu3.num_func_calls                      53700                       # number of times a function call or return occured
system.cpu3.num_conditional_control_insts       138973                       # number of instructions that are conditional controls
system.cpu3.num_int_insts                     1926267                       # number of integer instructions
system.cpu3.num_fp_insts                           39                       # number of float instructions
system.cpu3.num_int_register_reads            3922032                       # number of times the integer registers were read
system.cpu3.num_int_register_writes           1597275                       # number of times the integer registers were written
system.cpu3.num_fp_register_reads                  63                       # number of times the floating registers were read
system.cpu3.num_fp_register_writes                 31                       # number of times the floating registers were written
system.cpu3.num_cc_register_reads             1109028                       # number of times the CC registers were read
system.cpu3.num_cc_register_writes             583909                       # number of times the CC registers were written
system.cpu3.num_mem_refs                       470288                       # number of memory refs
system.cpu3.num_load_insts                     291403                       # Number of load instructions
system.cpu3.num_store_insts                    178885                       # Number of store instructions
system.cpu3.num_idle_cycles              2421838255.462511                       # Number of idle cycles
system.cpu3.num_busy_cycles              4082443.537490                       # Number of busy cycles
system.cpu3.not_idle_fraction                0.001683                       # Percentage of non-idle cycles
system.cpu3.idle_fraction                    0.998317                       # Percentage of idle cycles
system.cpu3.Branches                           210389                       # Number of branches fetched
system.cpu3.op_class::No_OpClass                36748      1.87%      1.87% # Class of executed instruction
system.cpu3.op_class::IntAlu                  1445542     73.39%     75.25% # Class of executed instruction
system.cpu3.op_class::IntMult                    3793      0.19%     75.45% # Class of executed instruction
system.cpu3.op_class::IntDiv                    13292      0.67%     76.12% # Class of executed instruction
system.cpu3.op_class::FloatAdd                     30      0.00%     76.12% # Class of executed instruction
system.cpu3.op_class::FloatCmp                      0      0.00%     76.12% # Class of executed instruction
system.cpu3.op_class::FloatCvt                      0      0.00%     76.12% # Class of executed instruction
system.cpu3.op_class::FloatMult                     0      0.00%     76.12% # Class of executed instruction
system.cpu3.op_class::FloatDiv                      0      0.00%     76.12% # Class of executed instruction
system.cpu3.op_class::FloatSqrt                     0      0.00%     76.12% # Class of executed instruction
system.cpu3.op_class::SimdAdd                       0      0.00%     76.12% # Class of executed instruction
system.cpu3.op_class::SimdAddAcc                    0      0.00%     76.12% # Class of executed instruction
system.cpu3.op_class::SimdAlu                       0      0.00%     76.12% # Class of executed instruction
system.cpu3.op_class::SimdCmp                       0      0.00%     76.12% # Class of executed instruction
system.cpu3.op_class::SimdCvt                       0      0.00%     76.12% # Class of executed instruction
system.cpu3.op_class::SimdMisc                      0      0.00%     76.12% # Class of executed instruction
system.cpu3.op_class::SimdMult                      0      0.00%     76.12% # Class of executed instruction
system.cpu3.op_class::SimdMultAcc                   0      0.00%     76.12% # Class of executed instruction
system.cpu3.op_class::SimdShift                     0      0.00%     76.12% # Class of executed instruction
system.cpu3.op_class::SimdShiftAcc                  0      0.00%     76.12% # Class of executed instruction
system.cpu3.op_class::SimdSqrt                      0      0.00%     76.12% # Class of executed instruction
system.cpu3.op_class::SimdFloatAdd                  0      0.00%     76.12% # Class of executed instruction
system.cpu3.op_class::SimdFloatAlu                  0      0.00%     76.12% # Class of executed instruction
system.cpu3.op_class::SimdFloatCmp                  0      0.00%     76.12% # Class of executed instruction
system.cpu3.op_class::SimdFloatCvt                  0      0.00%     76.12% # Class of executed instruction
system.cpu3.op_class::SimdFloatDiv                  0      0.00%     76.12% # Class of executed instruction
system.cpu3.op_class::SimdFloatMisc                 0      0.00%     76.12% # Class of executed instruction
system.cpu3.op_class::SimdFloatMult                 0      0.00%     76.12% # Class of executed instruction
system.cpu3.op_class::SimdFloatMultAcc              0      0.00%     76.12% # Class of executed instruction
system.cpu3.op_class::SimdFloatSqrt                 0      0.00%     76.12% # Class of executed instruction
system.cpu3.op_class::MemRead                  291403     14.79%     90.92% # Class of executed instruction
system.cpu3.op_class::MemWrite                 178885      9.08%    100.00% # Class of executed instruction
system.cpu3.op_class::IprAccess                     0      0.00%    100.00% # Class of executed instruction
system.cpu3.op_class::InstPrefetch                  0      0.00%    100.00% # Class of executed instruction
system.cpu3.op_class::total                   1969693                       # Class of executed instruction
system.iobus.trans_dist::ReadReq                  710                       # Transaction distribution
system.iobus.trans_dist::ReadResp                 710                       # Transaction distribution
system.iobus.trans_dist::WriteReq                1480                       # Transaction distribution
system.iobus.trans_dist::WriteResp               1480                       # Transaction distribution
system.iobus.trans_dist::MessageReq                11                       # Transaction distribution
system.iobus.trans_dist::MessageResp               11                       # Transaction distribution
system.iobus.pkt_count_system.pc.south_bridge.io_apic.int_master::system.ruby.l1_cntrl0.sequencer.pio-slave-port            2                       # Packet count per connected master and slave (bytes)
system.iobus.pkt_count_system.pc.south_bridge.io_apic.int_master::system.ruby.l1_cntrl1.sequencer.pio-slave-port            2                       # Packet count per connected master and slave (bytes)
system.iobus.pkt_count_system.pc.south_bridge.io_apic.int_master::system.ruby.l1_cntrl2.sequencer.pio-slave-port            2                       # Packet count per connected master and slave (bytes)
system.iobus.pkt_count_system.pc.south_bridge.io_apic.int_master::system.ruby.l1_cntrl3.sequencer.pio-slave-port            2                       # Packet count per connected master and slave (bytes)
system.iobus.pkt_count_system.pc.south_bridge.io_apic.int_master::total            8                       # Packet count per connected master and slave (bytes)
system.iobus.pkt_count_system.ruby.l1_cntrl0.sequencer.mem-master-port::system.pc.south_bridge.io_apic.pio            6                       # Packet count per connected master and slave (bytes)
system.iobus.pkt_count_system.ruby.l1_cntrl0.sequencer.mem-master-port::system.pc.com_1.pio          130                       # Packet count per connected master and slave (bytes)
system.iobus.pkt_count_system.ruby.l1_cntrl0.sequencer.mem-master-port::system.ruby.l1_cntrl0.sequencer.pio-slave-port          624                       # Packet count per connected master and slave (bytes)
system.iobus.pkt_count_system.ruby.l1_cntrl0.sequencer.mem-master-port::system.ruby.l1_cntrl1.sequencer.pio-slave-port            2                       # Packet count per connected master and slave (bytes)
system.iobus.pkt_count_system.ruby.l1_cntrl0.sequencer.mem-master-port::system.ruby.l1_cntrl3.sequencer.pio-slave-port            2                       # Packet count per connected master and slave (bytes)
system.iobus.pkt_count_system.ruby.l1_cntrl0.sequencer.mem-master-port::total          764                       # Packet count per connected master and slave (bytes)
system.iobus.pkt_count_system.ruby.l1_cntrl1.sequencer.mem-master-port::system.pc.south_bridge.io_apic.pio            8                       # Packet count per connected master and slave (bytes)
system.iobus.pkt_count_system.ruby.l1_cntrl1.sequencer.mem-master-port::system.ruby.l1_cntrl1.sequencer.pio-slave-port          618                       # Packet count per connected master and slave (bytes)
system.iobus.pkt_count_system.ruby.l1_cntrl1.sequencer.mem-master-port::system.ruby.l1_cntrl2.sequencer.pio-slave-port            2                       # Packet count per connected master and slave (bytes)
system.iobus.pkt_count_system.ruby.l1_cntrl1.sequencer.mem-master-port::total          628                       # Packet count per connected master and slave (bytes)
system.iobus.pkt_count_system.ruby.l1_cntrl2.sequencer.mem-master-port::system.pc.south_bridge.io_apic.pio            6                       # Packet count per connected master and slave (bytes)
system.iobus.pkt_count_system.ruby.l1_cntrl2.sequencer.mem-master-port::system.pc.com_1.pio         1734                       # Packet count per connected master and slave (bytes)
system.iobus.pkt_count_system.ruby.l1_cntrl2.sequencer.mem-master-port::system.ruby.l1_cntrl0.sequencer.pio-slave-port            2                       # Packet count per connected master and slave (bytes)
system.iobus.pkt_count_system.ruby.l1_cntrl2.sequencer.mem-master-port::system.ruby.l1_cntrl1.sequencer.pio-slave-port            2                       # Packet count per connected master and slave (bytes)
system.iobus.pkt_count_system.ruby.l1_cntrl2.sequencer.mem-master-port::system.ruby.l1_cntrl2.sequencer.pio-slave-port          628                       # Packet count per connected master and slave (bytes)
system.iobus.pkt_count_system.ruby.l1_cntrl2.sequencer.mem-master-port::system.ruby.l1_cntrl3.sequencer.pio-slave-port            2                       # Packet count per connected master and slave (bytes)
system.iobus.pkt_count_system.ruby.l1_cntrl2.sequencer.mem-master-port::total         2374                       # Packet count per connected master and slave (bytes)
system.iobus.pkt_count_system.ruby.l1_cntrl3.sequencer.mem-master-port::system.pc.south_bridge.io_apic.pio            8                       # Packet count per connected master and slave (bytes)
system.iobus.pkt_count_system.ruby.l1_cntrl3.sequencer.mem-master-port::system.ruby.l1_cntrl0.sequencer.pio-slave-port            2                       # Packet count per connected master and slave (bytes)
system.iobus.pkt_count_system.ruby.l1_cntrl3.sequencer.mem-master-port::system.ruby.l1_cntrl3.sequencer.pio-slave-port          618                       # Packet count per connected master and slave (bytes)
system.iobus.pkt_count_system.ruby.l1_cntrl3.sequencer.mem-master-port::total          628                       # Packet count per connected master and slave (bytes)
system.iobus.pkt_count::total                    4402                       # Packet count per connected master and slave (bytes)
system.iobus.pkt_size_system.pc.south_bridge.io_apic.int_master::system.ruby.l1_cntrl0.sequencer.pio-slave-port            4                       # Cumulative packet size per connected master and slave (bytes)
system.iobus.pkt_size_system.pc.south_bridge.io_apic.int_master::system.ruby.l1_cntrl1.sequencer.pio-slave-port            4                       # Cumulative packet size per connected master and slave (bytes)
system.iobus.pkt_size_system.pc.south_bridge.io_apic.int_master::system.ruby.l1_cntrl2.sequencer.pio-slave-port            4                       # Cumulative packet size per connected master and slave (bytes)
system.iobus.pkt_size_system.pc.south_bridge.io_apic.int_master::system.ruby.l1_cntrl3.sequencer.pio-slave-port            4                       # Cumulative packet size per connected master and slave (bytes)
system.iobus.pkt_size_system.pc.south_bridge.io_apic.int_master::total           16                       # Cumulative packet size per connected master and slave (bytes)
system.iobus.pkt_size_system.ruby.l1_cntrl0.sequencer.mem-master-port::system.pc.south_bridge.io_apic.pio           12                       # Cumulative packet size per connected master and slave (bytes)
system.iobus.pkt_size_system.ruby.l1_cntrl0.sequencer.mem-master-port::system.pc.com_1.pio           65                       # Cumulative packet size per connected master and slave (bytes)
system.iobus.pkt_size_system.ruby.l1_cntrl0.sequencer.mem-master-port::system.ruby.l1_cntrl0.sequencer.pio-slave-port         1248                       # Cumulative packet size per connected master and slave (bytes)
system.iobus.pkt_size_system.ruby.l1_cntrl0.sequencer.mem-master-port::system.ruby.l1_cntrl1.sequencer.pio-slave-port            4                       # Cumulative packet size per connected master and slave (bytes)
system.iobus.pkt_size_system.ruby.l1_cntrl0.sequencer.mem-master-port::system.ruby.l1_cntrl3.sequencer.pio-slave-port            4                       # Cumulative packet size per connected master and slave (bytes)
system.iobus.pkt_size_system.ruby.l1_cntrl0.sequencer.mem-master-port::total         1333                       # Cumulative packet size per connected master and slave (bytes)
system.iobus.pkt_size_system.ruby.l1_cntrl1.sequencer.mem-master-port::system.pc.south_bridge.io_apic.pio           16                       # Cumulative packet size per connected master and slave (bytes)
system.iobus.pkt_size_system.ruby.l1_cntrl1.sequencer.mem-master-port::system.ruby.l1_cntrl1.sequencer.pio-slave-port         1236                       # Cumulative packet size per connected master and slave (bytes)
system.iobus.pkt_size_system.ruby.l1_cntrl1.sequencer.mem-master-port::system.ruby.l1_cntrl2.sequencer.pio-slave-port            4                       # Cumulative packet size per connected master and slave (bytes)
system.iobus.pkt_size_system.ruby.l1_cntrl1.sequencer.mem-master-port::total         1256                       # Cumulative packet size per connected master and slave (bytes)
system.iobus.pkt_size_system.ruby.l1_cntrl2.sequencer.mem-master-port::system.pc.south_bridge.io_apic.pio           12                       # Cumulative packet size per connected master and slave (bytes)
system.iobus.pkt_size_system.ruby.l1_cntrl2.sequencer.mem-master-port::system.pc.com_1.pio          867                       # Cumulative packet size per connected master and slave (bytes)
system.iobus.pkt_size_system.ruby.l1_cntrl2.sequencer.mem-master-port::system.ruby.l1_cntrl0.sequencer.pio-slave-port            4                       # Cumulative packet size per connected master and slave (bytes)
system.iobus.pkt_size_system.ruby.l1_cntrl2.sequencer.mem-master-port::system.ruby.l1_cntrl1.sequencer.pio-slave-port            4                       # Cumulative packet size per connected master and slave (bytes)
system.iobus.pkt_size_system.ruby.l1_cntrl2.sequencer.mem-master-port::system.ruby.l1_cntrl2.sequencer.pio-slave-port         1256                       # Cumulative packet size per connected master and slave (bytes)
system.iobus.pkt_size_system.ruby.l1_cntrl2.sequencer.mem-master-port::system.ruby.l1_cntrl3.sequencer.pio-slave-port            4                       # Cumulative packet size per connected master and slave (bytes)
system.iobus.pkt_size_system.ruby.l1_cntrl2.sequencer.mem-master-port::total         2147                       # Cumulative packet size per connected master and slave (bytes)
system.iobus.pkt_size_system.ruby.l1_cntrl3.sequencer.mem-master-port::system.pc.south_bridge.io_apic.pio           16                       # Cumulative packet size per connected master and slave (bytes)
system.iobus.pkt_size_system.ruby.l1_cntrl3.sequencer.mem-master-port::system.ruby.l1_cntrl0.sequencer.pio-slave-port            4                       # Cumulative packet size per connected master and slave (bytes)
system.iobus.pkt_size_system.ruby.l1_cntrl3.sequencer.mem-master-port::system.ruby.l1_cntrl3.sequencer.pio-slave-port         1236                       # Cumulative packet size per connected master and slave (bytes)
system.iobus.pkt_size_system.ruby.l1_cntrl3.sequencer.mem-master-port::total         1256                       # Cumulative packet size per connected master and slave (bytes)
system.iobus.pkt_size::total                     6008                       # Cumulative packet size per connected master and slave (bytes)
system.iobus.reqLayer8.occupancy                25496                       # Layer occupancy (ticks)
system.iobus.reqLayer8.utilization                0.0                       # Layer utilization (%)
system.iobus.reqLayer12.occupancy             1208000                       # Layer occupancy (ticks)
system.iobus.reqLayer12.utilization               0.0                       # Layer utilization (%)
system.iobus.reqLayer17.occupancy              830250                       # Layer occupancy (ticks)
system.iobus.reqLayer17.utilization               0.0                       # Layer utilization (%)
system.iobus.reqLayer18.occupancy              772000                       # Layer occupancy (ticks)
system.iobus.reqLayer18.utilization               0.0                       # Layer utilization (%)
system.iobus.reqLayer19.occupancy              776998                       # Layer occupancy (ticks)
system.iobus.reqLayer19.utilization               0.0                       # Layer utilization (%)
system.iobus.reqLayer20.occupancy              772499                       # Layer occupancy (ticks)
system.iobus.reqLayer20.utilization               0.0                       # Layer utilization (%)
system.iobus.respLayer0.occupancy                6000                       # Layer occupancy (ticks)
system.iobus.respLayer0.utilization               0.0                       # Layer utilization (%)
system.iobus.respLayer2.occupancy              588500                       # Layer occupancy (ticks)
system.iobus.respLayer2.utilization               0.0                       # Layer utilization (%)
system.iobus.respLayer4.occupancy              471500                       # Layer occupancy (ticks)
system.iobus.respLayer4.utilization               0.0                       # Layer utilization (%)
system.iobus.respLayer6.occupancy             1998000                       # Layer occupancy (ticks)
system.iobus.respLayer6.utilization               0.0                       # Layer utilization (%)
system.iobus.respLayer8.occupancy              471500                       # Layer occupancy (ticks)
system.iobus.respLayer8.utilization               0.0                       # Layer utilization (%)
system.pc.south_bridge.ide.disks.dma_read_full_pages            0                       # Number of full page size DMA reads (not PRD).
system.pc.south_bridge.ide.disks.dma_read_bytes            0                       # Number of bytes transfered via DMA reads (not PRD).
system.pc.south_bridge.ide.disks.dma_read_txs            0                       # Number of DMA read transactions (not PRD).
system.pc.south_bridge.ide.disks.dma_write_full_pages            0                       # Number of full page size DMA writes.
system.pc.south_bridge.ide.disks.dma_write_bytes            0                       # Number of bytes transfered via DMA writes.
system.pc.south_bridge.ide.disks.dma_write_txs            0                       # Number of DMA write transactions.
system.ruby.clk_domain.clock                      500                       # Clock period in ticks
system.ruby.outstanding_req_hist_seqr::bucket_size            1                      
system.ruby.outstanding_req_hist_seqr::max_bucket            9                      
system.ruby.outstanding_req_hist_seqr::samples    936568802                      
system.ruby.outstanding_req_hist_seqr::mean     1.000000                      
system.ruby.outstanding_req_hist_seqr::gmean     1.000000                      
system.ruby.outstanding_req_hist_seqr::stdev     0.000497                      
system.ruby.outstanding_req_hist_seqr    |           0      0.00%      0.00% |   936568571    100.00%    100.00% |         231      0.00%    100.00% |           0      0.00%    100.00% |           0      0.00%    100.00% |           0      0.00%    100.00% |           0      0.00%    100.00% |           0      0.00%    100.00% |           0      0.00%    100.00% |           0      0.00%    100.00%
system.ruby.outstanding_req_hist_seqr::total    936568802                      
system.ruby.latency_hist_seqr::bucket_size          256                      
system.ruby.latency_hist_seqr::max_bucket         2559                      
system.ruby.latency_hist_seqr::samples      936568802                      
system.ruby.latency_hist_seqr::mean          1.603271                      
system.ruby.latency_hist_seqr::gmean         1.036771                      
system.ruby.latency_hist_seqr::stdev         9.756725                      
system.ruby.latency_hist_seqr            |   936455414     99.99%     99.99% |       58812      0.01%     99.99% |       48013      0.01%    100.00% |        4618      0.00%    100.00% |        1298      0.00%    100.00% |         417      0.00%    100.00% |         175      0.00%    100.00% |          40      0.00%    100.00% |          11      0.00%    100.00% |           4      0.00%    100.00%
system.ruby.latency_hist_seqr::total        936568802                      
system.ruby.hit_latency_hist_seqr::bucket_size            1                      
system.ruby.hit_latency_hist_seqr::max_bucket            9                      
system.ruby.hit_latency_hist_seqr::samples    927053895                      
system.ruby.hit_latency_hist_seqr::mean             1                      
system.ruby.hit_latency_hist_seqr::gmean            1                      
system.ruby.hit_latency_hist_seqr        |           0      0.00%      0.00% |   927053895    100.00%    100.00% |           0      0.00%    100.00% |           0      0.00%    100.00% |           0      0.00%    100.00% |           0      0.00%    100.00% |           0      0.00%    100.00% |           0      0.00%    100.00% |           0      0.00%    100.00% |           0      0.00%    100.00%
[...]
system.ruby.L1Cache_Controller.O.Fwd_GETX::total         6100                      
system.ruby.L1Cache_Controller.O.Fwd_GETS |         186      3.27%      3.27% |         893     15.71%     18.98% |         637     11.20%     30.18% |        3969     69.82%    100.00%
system.ruby.L1Cache_Controller.O.Fwd_GETS::total         5685                      
system.ruby.L1Cache_Controller.M.Load    |     4407180     94.85%     94.85% |       17781      0.38%     95.24% |      172596      3.71%     98.95% |       48727      1.05%    100.00%
system.ruby.L1Cache_Controller.M.Load::total      4646284                      
system.ruby.L1Cache_Controller.M.Store   |     2019536     98.29%     98.29% |         712      0.03%     98.32% |       32655      1.59%     99.91% |        1861      0.09%    100.00%
system.ruby.L1Cache_Controller.M.Store::total      2054764                      
system.ruby.L1Cache_Controller.M.L1_Replacement |      972344     98.27%     98.27% |        1219      0.12%     98.39% |       12370      1.25%     99.64% |        3572      0.36%    100.00%
system.ruby.L1Cache_Controller.M.L1_Replacement::total       989505                      
system.ruby.L1Cache_Controller.M.Fwd_GETX |         127     13.66%     13.66% |          76      8.17%     21.83% |         259     27.85%     49.68% |         468     50.32%    100.00%
system.ruby.L1Cache_Controller.M.Fwd_GETX::total          930                      
system.ruby.L1Cache_Controller.M.Fwd_GETS |         449      6.46%      6.46% |        1690     24.31%     30.76% |        1400     20.14%     50.90% |        3414     49.10%    100.00%
system.ruby.L1Cache_Controller.M.Fwd_GETS::total         6953                      
system.ruby.L1Cache_Controller.M_W.Load  |     1284433     96.66%     96.66% |        2614      0.20%     96.86% |       34811      2.62%     99.48% |        6895      0.52%    100.00%
system.ruby.L1Cache_Controller.M_W.Load::total      1328753                      
system.ruby.L1Cache_Controller.M_W.Store |      204684     97.24%     97.24% |         297      0.14%     97.38% |        4235      2.01%     99.39% |        1286      0.61%    100.00%
system.ruby.L1Cache_Controller.M_W.Store::total       210502                      
system.ruby.L1Cache_Controller.M_W.L1_Replacement |         551     99.64%     99.64% |           0      0.00%     99.64% |           2      0.36%    100.00% |           0      0.00%    100.00%
system.ruby.L1Cache_Controller.M_W.L1_Replacement::total          553                      
system.ruby.L1Cache_Controller.M_W.Fwd_GETX |          52     47.27%     47.27% |           0      0.00%     47.27% |          58     52.73%    100.00% |           0      0.00%    100.00%
system.ruby.L1Cache_Controller.M_W.Fwd_GETX::total          110                      
system.ruby.L1Cache_Controller.M_W.Fwd_GETS |         222     41.81%     41.81% |          10      1.88%     43.69% |         175     32.96%     76.65% |         124     23.35%    100.00%
system.ruby.L1Cache_Controller.M_W.Fwd_GETS::total          531                      
system.ruby.L1Cache_Controller.M_W.Use_Timeout |     2992527     98.04%     98.04% |        3760      0.12%     98.17% |       46598      1.53%     99.69% |        9316      0.31%    100.00%
system.ruby.L1Cache_Controller.M_W.Use_Timeout::total      3052201                      
system.ruby.L1Cache_Controller.MM.Load   |    55271903     95.22%     95.22% |      238490      0.41%     95.63% |     2018439      3.48%     99.10% |      519563      0.90%    100.00%
system.ruby.L1Cache_Controller.MM.Load::total     58048395                      
system.ruby.L1Cache_Controller.MM.Store  |    46919172     94.46%     94.46% |      249835      0.50%     94.96% |     1966954      3.96%     98.92% |      537040      1.08%    100.00%
system.ruby.L1Cache_Controller.MM.Store::total     49673001                      
system.ruby.L1Cache_Controller.MM.L1_Replacement |     6068330     98.23%     98.23% |        5306      0.09%     98.32% |       88877      1.44%     99.76% |       14991      0.24%    100.00%
system.ruby.L1Cache_Controller.MM.L1_Replacement::total      6177504                      
system.ruby.L1Cache_Controller.MM.Fwd_GETX |        1251     38.91%     38.91% |         586     18.23%     57.14% |         590     18.35%     75.49% |         788     24.51%    100.00%
system.ruby.L1Cache_Controller.MM.Fwd_GETX::total         3215                      
system.ruby.L1Cache_Controller.MM.Fwd_GETS |        3007     38.06%     38.06% |        1331     16.85%     54.91% |        1755     22.22%     77.13% |        1807     22.87%    100.00%
system.ruby.L1Cache_Controller.MM.Fwd_GETS::total         7900                      
system.ruby.L1Cache_Controller.MM.Fwd_DMA |           0      0.00%      0.00% |           0      0.00%      0.00% |           2    100.00%    100.00% |           0      0.00%    100.00%
system.ruby.L1Cache_Controller.MM.Fwd_DMA::total            2                      
system.ruby.L1Cache_Controller.MM_W.Load |      623005     97.40%     97.40% |         398      0.06%     97.46% |       14869      2.32%     99.78% |        1387      0.22%    100.00%
system.ruby.L1Cache_Controller.MM_W.Load::total       639659                      
system.ruby.L1Cache_Controller.MM_W.Store |     5658812     96.19%     96.19% |       26901      0.46%     96.65% |      126105      2.14%     98.79% |       71022      1.21%    100.00%
system.ruby.L1Cache_Controller.MM_W.Store::total      5882840                      
system.ruby.L1Cache_Controller.MM_W.L1_Replacement |        2825     99.86%     99.86% |           0      0.00%     99.86% |           4      0.14%    100.00% |           0      0.00%    100.00%
system.ruby.L1Cache_Controller.MM_W.L1_Replacement::total         2829                      
system.ruby.L1Cache_Controller.MM_W.Fwd_GETX |          14     43.75%     43.75% |           0      0.00%     43.75% |           9     28.12%     71.88% |           9     28.12%    100.00%
system.ruby.L1Cache_Controller.MM_W.Fwd_GETX::total           32                      
system.ruby.L1Cache_Controller.MM_W.Fwd_GETS |         284     18.65%     18.65% |         276     18.12%     36.77% |         483     31.71%     68.48% |         480     31.52%    100.00%
system.ruby.L1Cache_Controller.MM_W.Fwd_GETS::total         1523                      
system.ruby.L1Cache_Controller.MM_W.Use_Timeout |     4053006     98.04%     98.04% |        6390      0.15%     98.20% |       58592      1.42%     99.62% |       15900      0.38%    100.00%
system.ruby.L1Cache_Controller.MM_W.Use_Timeout::total      4133888                      
system.ruby.L1Cache_Controller.IM.Ack    |        3646     42.72%     42.72% |        1394     16.33%     59.05% |        2085     24.43%     83.48% |        1410     16.52%    100.00%
system.ruby.L1Cache_Controller.IM.Ack::total         8535                      
system.ruby.L1Cache_Controller.IM.Exclusive_Data |     3302006     98.43%     98.43% |        5097      0.15%     98.58% |       35084      1.05%     99.63% |       12436      0.37%    100.00%
system.ruby.L1Cache_Controller.IM.Exclusive_Data::total      3354623                      
system.ruby.L1Cache_Controller.SM.Ack    |        3679     61.84%     61.84% |         952     16.00%     77.85% |         892     14.99%     92.84% |         426      7.16%    100.00%
system.ruby.L1Cache_Controller.SM.Ack::total         5949                      
system.ruby.L1Cache_Controller.SM.Exclusive_Data |      546203     96.08%     96.08% |         990      0.17%     96.26% |       19214      3.38%     99.64% |        2072      0.36%    100.00%
system.ruby.L1Cache_Controller.SM.Exclusive_Data::total       568479                      
system.ruby.L1Cache_Controller.OM.Own_GETX |         113     39.79%     39.79% |           6      2.11%     41.90% |          59     20.77%     62.68% |         106     37.32%    100.00%
system.ruby.L1Cache_Controller.OM.Own_GETX::total          284                      
system.ruby.L1Cache_Controller.OM.Fwd_GETX |           2    100.00%    100.00% |           0      0.00%    100.00% |           0      0.00%    100.00% |           0      0.00%    100.00%
system.ruby.L1Cache_Controller.OM.Fwd_GETX::total            2                      
system.ruby.L1Cache_Controller.OM.Ack    |        1261     50.12%     50.12% |          72      2.86%     52.98% |         573     22.77%     75.76% |         610     24.24%    100.00%
system.ruby.L1Cache_Controller.OM.Ack::total         2516                      
system.ruby.L1Cache_Controller.OM.All_acks |     3848322     98.09%     98.09% |        6093      0.16%     98.24% |       54357      1.39%     99.63% |       14614      0.37%    100.00%
system.ruby.L1Cache_Controller.OM.All_acks::total      3923386                      
system.ruby.L1Cache_Controller.IS.Data   |     2401966     94.08%     94.08% |       23071      0.90%     94.98% |       90786      3.56%     98.53% |       37422      1.47%    100.00%
system.ruby.L1Cache_Controller.IS.Data::total      2553245                      
system.ruby.L1Cache_Controller.IS.Exclusive_Data |     3197211     97.99%     97.99% |        4057      0.12%     98.12% |       50833      1.56%     99.68% |       10602      0.32%    100.00%
system.ruby.L1Cache_Controller.IS.Exclusive_Data::total      3262703                      
system.ruby.L1Cache_Controller.SI.Load   |          17     70.83%     70.83% |           1      4.17%     75.00% |           3     12.50%     87.50% |           3     12.50%    100.00%
system.ruby.L1Cache_Controller.SI.Load::total           24                      
system.ruby.L1Cache_Controller.SI.Ifetch |           0      0.00%      0.00% |           0      0.00%      0.00% |           4    100.00%    100.00% |           0      0.00%    100.00%
system.ruby.L1Cache_Controller.SI.Ifetch::total            4                      
system.ruby.L1Cache_Controller.SI.Inv    |           0      0.00%      0.00% |           0      0.00%      0.00% |           0      0.00%      0.00% |           3    100.00%    100.00%
system.ruby.L1Cache_Controller.SI.Inv::total            3                      
system.ruby.L1Cache_Controller.SI.Writeback_Ack |      775666     89.92%     89.92% |       15772      1.83%     91.75% |       44656      5.18%     96.92% |       26539      3.08%    100.00%
system.ruby.L1Cache_Controller.SI.Writeback_Ack::total       862633                      
system.ruby.L1Cache_Controller.SI.Writeback_Ack_Data |     1079387     96.78%     96.78% |        4043      0.36%     97.14% |       24442      2.19%     99.33% |        7450      0.67%    100.00%
system.ruby.L1Cache_Controller.SI.Writeback_Ack_Data::total      1115322                      
system.ruby.L1Cache_Controller.OI.Writeback_Ack_Data |         137     20.48%     20.48% |         105     15.70%     36.17% |         190     28.40%     64.57% |         237     35.43%    100.00%
system.ruby.L1Cache_Controller.OI.Writeback_Ack_Data::total          669                      
system.ruby.L1Cache_Controller.MI.Load   |           8     72.73%     72.73% |           2     18.18%     90.91% |           1      9.09%    100.00% |           0      0.00%    100.00%
system.ruby.L1Cache_Controller.MI.Load::total           11                      
system.ruby.L1Cache_Controller.MI.Store  |           0      0.00%      0.00% |           0      0.00%      0.00% |           3    100.00%    100.00% |           0      0.00%    100.00%
system.ruby.L1Cache_Controller.MI.Store::total            3                      
system.ruby.L1Cache_Controller.MI.Writeback_Ack_Data |     7040674     98.24%     98.24% |        6525      0.09%     98.33% |      101247      1.41%     99.74% |       18563      0.26%    100.00%
system.ruby.L1Cache_Controller.MI.Writeback_Ack_Data::total      7167009                      
system.ruby.L1Cache_Controller.II.Writeback_Nack |           0      0.00%      0.00% |           0      0.00%      0.00% |           0      0.00%      0.00% |           3    100.00%    100.00%
system.ruby.L1Cache_Controller.II.Writeback_Nack::total            3                      
system.ruby.L2Cache_Controller.L1_GETS        5816401      0.00%      0.00%
system.ruby.L2Cache_Controller.L1_GETX        3923398      0.00%      0.00%
system.ruby.L2Cache_Controller.L1_PUTO            669      0.00%      0.00%
system.ruby.L2Cache_Controller.L1_PUTX        7167009      0.00%      0.00%
system.ruby.L2Cache_Controller.L1_PUTS_only      1872469      0.00%      0.00%
system.ruby.L2Cache_Controller.L1_PUTS         105516      0.00%      0.00%
system.ruby.L2Cache_Controller.Fwd_DMA              2      0.00%      0.00%
system.ruby.L2Cache_Controller.Inv                128      0.00%      0.00%
system.ruby.L2Cache_Controller.All_Acks       1638203      0.00%      0.00%
system.ruby.L2Cache_Controller.Data           3303345      0.00%      0.00%
system.ruby.L2Cache_Controller.L1_WBCLEANDATA      1115322      0.00%      0.00%
system.ruby.L2Cache_Controller.L1_WBDIRTYDATA      7167678      0.00%      0.00%
system.ruby.L2Cache_Controller.Writeback_Ack      1639453      0.00%      0.00%
system.ruby.L2Cache_Controller.Unblock        3415878      0.00%      0.00%
system.ruby.L2Cache_Controller.Exclusive_Unblock      7186089      0.00%      0.00%
system.ruby.L2Cache_Controller.DmaAck               2      0.00%      0.00%
system.ruby.L2Cache_Controller.L2_Replacement      2748782      0.00%      0.00%
system.ruby.L2Cache_Controller.NP.L1_GETS      1665142      0.00%      0.00%
system.ruby.L2Cache_Controller.NP.L1_GETX      1070763      0.00%      0.00%
system.ruby.L2Cache_Controller.NP.Inv             128      0.00%      0.00%
system.ruby.L2Cache_Controller.ILS.L1_GETS         9565      0.00%      0.00%
system.ruby.L2Cache_Controller.ILS.L1_GETX       562759      0.00%      0.00%
system.ruby.L2Cache_Controller.ILS.L1_PUTS_only      1104401      0.00%      0.00%
system.ruby.L2Cache_Controller.ILS.L1_PUTS        10921      0.00%      0.00%
system.ruby.L2Cache_Controller.ILX.L1_GETS        14853      0.00%      0.00%
system.ruby.L2Cache_Controller.ILX.L1_GETX         4145      0.00%      0.00%
system.ruby.L2Cache_Controller.ILX.L1_PUTX      7167009      0.00%      0.00%
system.ruby.L2Cache_Controller.ILX.L1_PUTS            3      0.00%      0.00%
system.ruby.L2Cache_Controller.ILX.Fwd_DMA            2      0.00%      0.00%
system.ruby.L2Cache_Controller.ILOX.L1_GETS         1701      0.00%      0.00%
system.ruby.L2Cache_Controller.ILOX.L1_GETX          661      0.00%      0.00%
system.ruby.L2Cache_Controller.ILOX.L1_PUTO          342      0.00%      0.00%
system.ruby.L2Cache_Controller.ILOSX.L1_GETS         3984      0.00%      0.00%
system.ruby.L2Cache_Controller.ILOSX.L1_GETX         5725      0.00%      0.00%
system.ruby.L2Cache_Controller.ILOSX.L1_PUTO          327      0.00%      0.00%
system.ruby.L2Cache_Controller.ILOSX.L1_PUTS_only         2714      0.00%      0.00%
system.ruby.L2Cache_Controller.ILOSX.L1_PUTS         1006      0.00%      0.00%
system.ruby.L2Cache_Controller.S.L1_GETS       770381      0.00%      0.00%
system.ruby.L2Cache_Controller.S.L1_GETX         1955      0.00%      0.00%
system.ruby.L2Cache_Controller.S.L2_Replacement      1095985      0.00%      0.00%
system.ruby.L2Cache_Controller.OLSX.L1_GETS          529      0.00%      0.00%
system.ruby.L2Cache_Controller.OLSX.L1_GETX          133      0.00%      0.00%
system.ruby.L2Cache_Controller.OLSX.L1_PUTS_only          144      0.00%      0.00%
system.ruby.L2Cache_Controller.OLSX.L1_PUTS          486      0.00%      0.00%
system.ruby.L2Cache_Controller.OLSX.L2_Replacement           61      0.00%      0.00%
system.ruby.L2Cache_Controller.SLS.L1_GETS        94990      0.00%      0.00%
system.ruby.L2Cache_Controller.SLS.L1_GETX         2726      0.00%      0.00%
system.ruby.L2Cache_Controller.SLS.L1_PUTS_only       765184      0.00%      0.00%
system.ruby.L2Cache_Controller.SLS.L1_PUTS        93099      0.00%      0.00%
system.ruby.L2Cache_Controller.SLS.L2_Replacement        13344      0.00%      0.00%
system.ruby.L2Cache_Controller.M.L1_GETS      3254803      0.00%      0.00%
system.ruby.L2Cache_Controller.M.L1_GETX      2274519      0.00%      0.00%
system.ruby.L2Cache_Controller.M.L2_Replacement      1639392      0.00%      0.00%
system.ruby.L2Cache_Controller.ILOXW.L1_WBDIRTYDATA          342      0.00%      0.00%
system.ruby.L2Cache_Controller.ILOXW.Unblock         2714      0.00%      0.00%
system.ruby.L2Cache_Controller.ILOSXW.L1_WBDIRTYDATA          327      0.00%      0.00%
system.ruby.L2Cache_Controller.ILOSXW.Unblock         1006      0.00%      0.00%
system.ruby.L2Cache_Controller.SLSW.Unblock        93099      0.00%      0.00%
system.ruby.L2Cache_Controller.ILSW.L1_WBCLEANDATA        10921      0.00%      0.00%
system.ruby.L2Cache_Controller.IW.L1_WBCLEANDATA      1104401      0.00%      0.00%
system.ruby.L2Cache_Controller.SW.L1_GETS            2      0.00%      0.00%
system.ruby.L2Cache_Controller.SW.Unblock       765184      0.00%      0.00%
system.ruby.L2Cache_Controller.OXW.Unblock          144      0.00%      0.00%
system.ruby.L2Cache_Controller.OLSXW.Unblock          486      0.00%      0.00%
system.ruby.L2Cache_Controller.ILXW.L1_WBDIRTYDATA      7167009      0.00%      0.00%
system.ruby.L2Cache_Controller.IFLS.L1_GETS            7      0.00%      0.00%
system.ruby.L2Cache_Controller.IFLS.Unblock         9565      0.00%      0.00%
system.ruby.L2Cache_Controller.IFLOX.Unblock         1701      0.00%      0.00%
system.ruby.L2Cache_Controller.IFLOX.Exclusive_Unblock          133      0.00%      0.00%
system.ruby.L2Cache_Controller.IFLOXX.L1_GETS          245      0.00%      0.00%
system.ruby.L2Cache_Controller.IFLOXX.L1_GETX            8      0.00%      0.00%
system.ruby.L2Cache_Controller.IFLOXX.Unblock         6953      0.00%      0.00%
system.ruby.L2Cache_Controller.IFLOXX.Exclusive_Unblock        12706      0.00%      0.00%
system.ruby.L2Cache_Controller.IFLOSX.Unblock         3984      0.00%      0.00%
system.ruby.L2Cache_Controller.IFLXO.L1_GETS          146      0.00%      0.00%
system.ruby.L2Cache_Controller.IFLXO.L1_GETX            4      0.00%      0.00%
system.ruby.L2Cache_Controller.IFLXO.Exclusive_Unblock         5725      0.00%      0.00%
system.ruby.L2Cache_Controller.IGS.L1_GETS           53      0.00%      0.00%
system.ruby.L2Cache_Controller.IGS.Data       1665142      0.00%      0.00%
system.ruby.L2Cache_Controller.IGS.Unblock      1665142      0.00%      0.00%
system.ruby.L2Cache_Controller.IGM.Data       1072718      0.00%      0.00%
system.ruby.L2Cache_Controller.IGMLS.L1_PUTS_only           17      0.00%      0.00%
system.ruby.L2Cache_Controller.IGMLS.Data       565485      0.00%      0.00%
system.ruby.L2Cache_Controller.IGMO.L1_PUTS_only            7      0.00%      0.00%
system.ruby.L2Cache_Controller.IGMO.All_Acks      1638203      0.00%      0.00%
system.ruby.L2Cache_Controller.IGMO.Exclusive_Unblock      1638203      0.00%      0.00%
system.ruby.L2Cache_Controller.MM.Exclusive_Unblock      2274519      0.00%      0.00%
system.ruby.L2Cache_Controller.SS.Unblock       770381      0.00%      0.00%
system.ruby.L2Cache_Controller.OO.Exclusive_Unblock      3254803      0.00%      0.00%
system.ruby.L2Cache_Controller.OLSXS.Unblock          529      0.00%      0.00%
system.ruby.L2Cache_Controller.SLSS.L1_PUTS_only            2      0.00%      0.00%
system.ruby.L2Cache_Controller.SLSS.L1_PUTS            1      0.00%      0.00%
system.ruby.L2Cache_Controller.SLSS.Unblock        94990      0.00%      0.00%
system.ruby.L2Cache_Controller.MI.Writeback_Ack      1639392      0.00%      0.00%
system.ruby.L2Cache_Controller.OLSI.Writeback_Ack           61      0.00%      0.00%
system.ruby.L2Cache_Controller.ILXD.DmaAck            2      0.00%      0.00%

---------- End Simulation Statistics   ----------
