Couldn't import dot_parser, loading of dot files will not be possible.
Redirecting stdout to /root/anthony/lelec2990-sim/splash2x.fft/X86_MOESI_CMP_directory/l2_size/1MB/stdout.txt
Redirecting stderr to /root/anthony/lelec2990-sim/splash2x.fft/X86_MOESI_CMP_directory/l2_size/1MB/stderr.txt
gem5 Simulator System.  http://gem5.org
gem5 is copyrighted software; use the --copyright option for details.

gem5 compiled Jun  1 2016 12:28:54
gem5 started Jun  2 2016 04:55:39
gem5 executing on bulusan.info.ucl.ac.be, pid 3998596
command line: /root/anthony/gem5/build/X86_MOESI_CMP_directory/gem5.opt --outdir=/root/anthony/lelec2990-sim/splash2x.fft/X86_MOESI_CMP_directory/l2_size/1MB -e --stderr-file=/root/anthony/lelec2990-sim/splash2x.fft/X86_MOESI_CMP_directory/l2_size/1MB/stderr.txt -r --stdout-file=/root/anthony/lelec2990-sim/splash2x.fft/X86_MOESI_CMP_directory/l2_size/1MB/stdout.txt /root/anthony/gem5/configs/example/fs.py --mem-size 1GB --script /root/anthony/gem5/sim_script --num-cpus 4 --ruby -r 1 --restore-with-cpu timing --l2_size 1MB

Global frequency set at 1000000000000 ticks per second
info: kernel located at: /root/anthony/debian/binaries/vmlinux
      0: rtc: Real-time clock set to Sun Jan  1 00:00:00 2012
**** REAL SIMULATION ****
info: Entering event queue @ 52416758571500.  Starting simulation...
Exiting @ tick 53665309570501 because m5_exit instruction encountered
