Redirecting stdout to /root/anthony/lelec2990-sim/blackscholes/X86_MOESI_hammer/cacheline_size/64b/stdout.txt
Redirecting stderr to /root/anthony/lelec2990-sim/blackscholes/X86_MOESI_hammer/cacheline_size/64b/stderr.txt
gem5 Simulator System.  http://gem5.org
gem5 is copyrighted software; use the --copyright option for details.

gem5 compiled Jun  1 2016 13:02:10
gem5 started Jun  2 2016 06:45:54
gem5 executing on trident.info.ucl.ac.be, pid 1335528
command line: /root/anthony/gem5/build/X86_MOESI_hammer/gem5.opt --outdir=/root/anthony/lelec2990-sim/blackscholes/X86_MOESI_hammer/cacheline_size/64b -e --stderr-file=/root/anthony/lelec2990-sim/blackscholes/X86_MOESI_hammer/cacheline_size/64b/stderr.txt -r --stdout-file=/root/anthony/lelec2990-sim/blackscholes/X86_MOESI_hammer/cacheline_size/64b/stdout.txt /root/anthony/gem5/configs/example/fs.py --mem-size 1GB --script /root/anthony/gem5/sim_script --num-cpus 4 --ruby -r 1 --restore-with-cpu timing --cacheline_size 64

Global frequency set at 1000000000000 ticks per second
info: kernel located at: /root/anthony/debian/binaries/vmlinux
      0: rtc: Real-time clock set to Sun Jan  1 00:00:00 2012
**** REAL SIMULATION ****
info: Entering event queue @ 52312562616500.  Starting simulation...
Exiting @ tick 52812859773501 because m5_exit instruction encountered
