
---------- Begin Simulation Statistics ----------
sim_seconds                                  2.373528                       # Number of seconds simulated
sim_ticks                                2373527627000                       # Number of ticks simulated
final_tick                               57321550279001                       # Number of ticks from beginning of simulation (restored from checkpoints and never reset)
sim_freq                                 1000000000000                       # Frequency of simulated ticks
host_inst_rate                                 127523                       # Simulator instruction rate (inst/s)
host_op_rate                                   231158                       # Simulator op (including micro ops) rate (op/s)
host_tick_rate                              230501133                       # Simulator tick rate (ticks/s)
host_mem_usage                                2001364                       # Number of bytes of host memory used
host_seconds                                 10297.25                       # Real time elapsed on the host
sim_insts                                  1313138570                       # Number of instructions simulated
sim_ops                                    2380286536                       # Number of ops (including micro ops) simulated
system.voltage_domain.voltage                       1                       # Voltage in Volts
system.clk_domain.clock                          1000                       # Clock period in ticks
system.mem_ctrls.bytes_read::ruby.dir_cntrl0     59410208                       # Number of bytes read from this memory
system.mem_ctrls.bytes_read::total           59410208                       # Number of bytes read from this memory
system.mem_ctrls.bytes_written::ruby.dir_cntrl0     33627744                       # Number of bytes written to this memory
system.mem_ctrls.bytes_written::total        33627744                       # Number of bytes written to this memory
system.mem_ctrls.num_reads::ruby.dir_cntrl0      1856569                       # Number of read requests responded to by this memory
system.mem_ctrls.num_reads::total             1856569                       # Number of read requests responded to by this memory
system.mem_ctrls.num_writes::ruby.dir_cntrl0      1050867                       # Number of write requests responded to by this memory
system.mem_ctrls.num_writes::total            1050867                       # Number of write requests responded to by this memory
system.mem_ctrls.bw_read::ruby.dir_cntrl0     25030342                       # Total read bandwidth from this memory (bytes/s)
system.mem_ctrls.bw_read::total              25030342                       # Total read bandwidth from this memory (bytes/s)
system.mem_ctrls.bw_write::ruby.dir_cntrl0     14167833                       # Write bandwidth from this memory (bytes/s)
system.mem_ctrls.bw_write::total             14167833                       # Write bandwidth from this memory (bytes/s)
system.mem_ctrls.bw_total::ruby.dir_cntrl0     39198175                       # Total bandwidth to/from this memory (bytes/s)
system.mem_ctrls.bw_total::total             39198175                       # Total bandwidth to/from this memory (bytes/s)
system.mem_ctrls.readReqs                     1856569                       # Number of read requests accepted
system.mem_ctrls.writeReqs                    1050867                       # Number of write requests accepted
system.mem_ctrls.readBursts                   1856569                       # Number of DRAM read bursts, including those serviced by the write queue
system.mem_ctrls.writeBursts                  1050867                       # Number of DRAM write bursts, including those merged in the write queue
system.mem_ctrls.bytesReadDRAM              118707264                       # Total number of bytes read from DRAM
system.mem_ctrls.bytesReadWrQ                  113152                       # Total number of bytes read from write queue
system.mem_ctrls.bytesWritten                64996864                       # Total number of bytes written to DRAM
system.mem_ctrls.bytesReadSys                59410208                       # Total read bytes from the system interface side
system.mem_ctrls.bytesWrittenSys             33627744                       # Total written bytes from the system interface side
system.mem_ctrls.servicedByWrQ                   1768                       # Number of DRAM read bursts serviced by the write queue
system.mem_ctrls.mergedWrBursts                 35297                       # Number of DRAM write bursts merged with an existing one
system.mem_ctrls.neitherReadNorWriteReqs            0                       # Number of requests that are neither read nor write
system.mem_ctrls.perBankRdBursts::0            116600                       # Per bank write bursts
system.mem_ctrls.perBankRdBursts::1            114466                       # Per bank write bursts
system.mem_ctrls.perBankRdBursts::2            112280                       # Per bank write bursts
system.mem_ctrls.perBankRdBursts::3            116277                       # Per bank write bursts
system.mem_ctrls.perBankRdBursts::4            114253                       # Per bank write bursts
system.mem_ctrls.perBankRdBursts::5            118586                       # Per bank write bursts
system.mem_ctrls.perBankRdBursts::6            117831                       # Per bank write bursts
system.mem_ctrls.perBankRdBursts::7            115709                       # Per bank write bursts
system.mem_ctrls.perBankRdBursts::8            116116                       # Per bank write bursts
system.mem_ctrls.perBankRdBursts::9            118036                       # Per bank write bursts
system.mem_ctrls.perBankRdBursts::10           111844                       # Per bank write bursts
system.mem_ctrls.perBankRdBursts::11           114965                       # Per bank write bursts
system.mem_ctrls.perBankRdBursts::12           115709                       # Per bank write bursts
system.mem_ctrls.perBankRdBursts::13           114633                       # Per bank write bursts
system.mem_ctrls.perBankRdBursts::14           118750                       # Per bank write bursts
system.mem_ctrls.perBankRdBursts::15           118746                       # Per bank write bursts
system.mem_ctrls.perBankWrBursts::0             63295                       # Per bank write bursts
system.mem_ctrls.perBankWrBursts::1             63056                       # Per bank write bursts
system.mem_ctrls.perBankWrBursts::2             62203                       # Per bank write bursts
system.mem_ctrls.perBankWrBursts::3             62908                       # Per bank write bursts
system.mem_ctrls.perBankWrBursts::4             62919                       # Per bank write bursts
system.mem_ctrls.perBankWrBursts::5             65182                       # Per bank write bursts
system.mem_ctrls.perBankWrBursts::6             63207                       # Per bank write bursts
system.mem_ctrls.perBankWrBursts::7             64564                       # Per bank write bursts
system.mem_ctrls.perBankWrBursts::8             64632                       # Per bank write bursts
system.mem_ctrls.perBankWrBursts::9             63833                       # Per bank write bursts
system.mem_ctrls.perBankWrBursts::10            62378                       # Per bank write bursts
system.mem_ctrls.perBankWrBursts::11            63201                       # Per bank write bursts
system.mem_ctrls.perBankWrBursts::12            62619                       # Per bank write bursts
system.mem_ctrls.perBankWrBursts::13            62907                       # Per bank write bursts
system.mem_ctrls.perBankWrBursts::14            64133                       # Per bank write bursts
system.mem_ctrls.perBankWrBursts::15            64539                       # Per bank write bursts
system.mem_ctrls.numRdRetry                         0                       # Number of times read queue was full causing retry
system.mem_ctrls.numWrRetry                         0                       # Number of times write queue was full causing retry
system.mem_ctrls.totGap                  2373527691500                       # Total gap between requests
system.mem_ctrls.readPktSize::0                     0                       # Read request sizes (log2)
system.mem_ctrls.readPktSize::1                     0                       # Read request sizes (log2)
system.mem_ctrls.readPktSize::2                     0                       # Read request sizes (log2)
system.mem_ctrls.readPktSize::3                     0                       # Read request sizes (log2)
system.mem_ctrls.readPktSize::4                     0                       # Read request sizes (log2)
system.mem_ctrls.readPktSize::5               1856569                       # Read request sizes (log2)
system.mem_ctrls.readPktSize::6                     0                       # Read request sizes (log2)
system.mem_ctrls.writePktSize::0                    0                       # Write request sizes (log2)
system.mem_ctrls.writePktSize::1                    0                       # Write request sizes (log2)
system.mem_ctrls.writePktSize::2                    0                       # Write request sizes (log2)
system.mem_ctrls.writePktSize::3                    0                       # Write request sizes (log2)
system.mem_ctrls.writePktSize::4                    0                       # Write request sizes (log2)
system.mem_ctrls.writePktSize::5              1050867                       # Write request sizes (log2)
system.mem_ctrls.writePktSize::6                    0                       # Write request sizes (log2)
system.mem_ctrls.rdQLenPdf::0                 1851750                       # What read queue length does an incoming req see
system.mem_ctrls.rdQLenPdf::1                    3039                       # What read queue length does an incoming req see
system.mem_ctrls.rdQLenPdf::2                      12                       # What read queue length does an incoming req see
system.mem_ctrls.rdQLenPdf::3                       0                       # What read queue length does an incoming req see
system.mem_ctrls.rdQLenPdf::4                       0                       # What read queue length does an incoming req see
system.mem_ctrls.rdQLenPdf::5                       0                       # What read queue length does an incoming req see
system.mem_ctrls.rdQLenPdf::6                       0                       # What read queue length does an incoming req see
system.mem_ctrls.rdQLenPdf::7                       0                       # What read queue length does an incoming req see
system.mem_ctrls.rdQLenPdf::8                       0                       # What read queue length does an incoming req see
system.mem_ctrls.rdQLenPdf::9                       0                       # What read queue length does an incoming req see
system.mem_ctrls.rdQLenPdf::10                      0                       # What read queue length does an incoming req see
system.mem_ctrls.rdQLenPdf::11                      0                       # What read queue length does an incoming req see
system.mem_ctrls.rdQLenPdf::12                      0                       # What read queue length does an incoming req see
system.mem_ctrls.rdQLenPdf::13                      0                       # What read queue length does an incoming req see
system.mem_ctrls.rdQLenPdf::14                      0                       # What read queue length does an incoming req see
system.mem_ctrls.rdQLenPdf::15                      0                       # What read queue length does an incoming req see
system.mem_ctrls.rdQLenPdf::16                      0                       # What read queue length does an incoming req see
system.mem_ctrls.rdQLenPdf::17                      0                       # What read queue length does an incoming req see
system.mem_ctrls.rdQLenPdf::18                      0                       # What read queue length does an incoming req see
system.mem_ctrls.rdQLenPdf::19                      0                       # What read queue length does an incoming req see
system.mem_ctrls.rdQLenPdf::20                      0                       # What read queue length does an incoming req see
system.mem_ctrls.rdQLenPdf::21                      0                       # What read queue length does an incoming req see
system.mem_ctrls.rdQLenPdf::22                      0                       # What read queue length does an incoming req see
system.mem_ctrls.rdQLenPdf::23                      0                       # What read queue length does an incoming req see
system.mem_ctrls.rdQLenPdf::24                      0                       # What read queue length does an incoming req see
system.mem_ctrls.rdQLenPdf::25                      0                       # What read queue length does an incoming req see
system.mem_ctrls.rdQLenPdf::26                      0                       # What read queue length does an incoming req see
system.mem_ctrls.rdQLenPdf::27                      0                       # What read queue length does an incoming req see
system.mem_ctrls.rdQLenPdf::28                      0                       # What read queue length does an incoming req see
system.mem_ctrls.rdQLenPdf::29                      0                       # What read queue length does an incoming req see
system.mem_ctrls.rdQLenPdf::30                      0                       # What read queue length does an incoming req see
system.mem_ctrls.rdQLenPdf::31                      0                       # What read queue length does an incoming req see
system.mem_ctrls.wrQLenPdf::0                       0                       # What write queue length does an incoming req see
system.mem_ctrls.wrQLenPdf::1                       0                       # What write queue length does an incoming req see
system.mem_ctrls.wrQLenPdf::2                       0                       # What write queue length does an incoming req see
system.mem_ctrls.wrQLenPdf::3                       0                       # What write queue length does an incoming req see
system.mem_ctrls.wrQLenPdf::4                       0                       # What write queue length does an incoming req see
system.mem_ctrls.wrQLenPdf::5                       0                       # What write queue length does an incoming req see
system.mem_ctrls.wrQLenPdf::6                       0                       # What write queue length does an incoming req see
system.mem_ctrls.wrQLenPdf::7                       0                       # What write queue length does an incoming req see
system.mem_ctrls.wrQLenPdf::8                       0                       # What write queue length does an incoming req see
system.mem_ctrls.wrQLenPdf::9                       0                       # What write queue length does an incoming req see
system.mem_ctrls.wrQLenPdf::10                      0                       # What write queue length does an incoming req see
system.mem_ctrls.wrQLenPdf::11                      0                       # What write queue length does an incoming req see
system.mem_ctrls.wrQLenPdf::12                      0                       # What write queue length does an incoming req see
system.mem_ctrls.wrQLenPdf::13                      0                       # What write queue length does an incoming req see
system.mem_ctrls.wrQLenPdf::14                      0                       # What write queue length does an incoming req see
system.mem_ctrls.wrQLenPdf::15                  33086                       # What write queue length does an incoming req see
system.mem_ctrls.wrQLenPdf::16                  35419                       # What write queue length does an incoming req see
system.mem_ctrls.wrQLenPdf::17                  47320                       # What write queue length does an incoming req see
system.mem_ctrls.wrQLenPdf::18                  60381                       # What write queue length does an incoming req see
system.mem_ctrls.wrQLenPdf::19                  60825                       # What write queue length does an incoming req see
system.mem_ctrls.wrQLenPdf::20                  61501                       # What write queue length does an incoming req see
system.mem_ctrls.wrQLenPdf::21                  61672                       # What write queue length does an incoming req see
system.mem_ctrls.wrQLenPdf::22                  60770                       # What write queue length does an incoming req see
system.mem_ctrls.wrQLenPdf::23                  60237                       # What write queue length does an incoming req see
system.mem_ctrls.wrQLenPdf::24                  59903                       # What write queue length does an incoming req see
system.mem_ctrls.wrQLenPdf::25                  59655                       # What write queue length does an incoming req see
system.mem_ctrls.wrQLenPdf::26                  59572                       # What write queue length does an incoming req see
system.mem_ctrls.wrQLenPdf::27                  59471                       # What write queue length does an incoming req see
system.mem_ctrls.wrQLenPdf::28                  59273                       # What write queue length does an incoming req see
system.mem_ctrls.wrQLenPdf::29                  59229                       # What write queue length does an incoming req see
system.mem_ctrls.wrQLenPdf::30                  59056                       # What write queue length does an incoming req see
system.mem_ctrls.wrQLenPdf::31                  59021                       # What write queue length does an incoming req see
system.mem_ctrls.wrQLenPdf::32                  59035                       # What write queue length does an incoming req see
system.mem_ctrls.wrQLenPdf::33                    102                       # What write queue length does an incoming req see
system.mem_ctrls.wrQLenPdf::34                     20                       # What write queue length does an incoming req see
system.mem_ctrls.wrQLenPdf::35                      6                       # What write queue length does an incoming req see
system.mem_ctrls.wrQLenPdf::36                      5                       # What write queue length does an incoming req see
system.mem_ctrls.wrQLenPdf::37                      4                       # What write queue length does an incoming req see
system.mem_ctrls.wrQLenPdf::38                      2                       # What write queue length does an incoming req see
system.mem_ctrls.wrQLenPdf::39                      2                       # What write queue length does an incoming req see
system.mem_ctrls.wrQLenPdf::40                      1                       # What write queue length does an incoming req see
system.mem_ctrls.wrQLenPdf::41                      1                       # What write queue length does an incoming req see
system.mem_ctrls.wrQLenPdf::42                      1                       # What write queue length does an incoming req see
system.mem_ctrls.wrQLenPdf::43                      0                       # What write queue length does an incoming req see
system.mem_ctrls.wrQLenPdf::44                      0                       # What write queue length does an incoming req see
system.mem_ctrls.wrQLenPdf::45                      0                       # What write queue length does an incoming req see
system.mem_ctrls.wrQLenPdf::46                      0                       # What write queue length does an incoming req see
system.mem_ctrls.wrQLenPdf::47                      0                       # What write queue length does an incoming req see
system.mem_ctrls.wrQLenPdf::48                      0                       # What write queue length does an incoming req see
system.mem_ctrls.wrQLenPdf::49                      0                       # What write queue length does an incoming req see
system.mem_ctrls.wrQLenPdf::50                      0                       # What write queue length does an incoming req see
system.mem_ctrls.wrQLenPdf::51                      0                       # What write queue length does an incoming req see
system.mem_ctrls.wrQLenPdf::52                      0                       # What write queue length does an incoming req see
system.mem_ctrls.wrQLenPdf::53                      0                       # What write queue length does an incoming req see
system.mem_ctrls.wrQLenPdf::54                      0                       # What write queue length does an incoming req see
system.mem_ctrls.wrQLenPdf::55                      0                       # What write queue length does an incoming req see
system.mem_ctrls.wrQLenPdf::56                      0                       # What write queue length does an incoming req see
system.mem_ctrls.wrQLenPdf::57                      0                       # What write queue length does an incoming req see
system.mem_ctrls.wrQLenPdf::58                      0                       # What write queue length does an incoming req see
system.mem_ctrls.wrQLenPdf::59                      0                       # What write queue length does an incoming req see
system.mem_ctrls.wrQLenPdf::60                      0                       # What write queue length does an incoming req see
system.mem_ctrls.wrQLenPdf::61                      0                       # What write queue length does an incoming req see
system.mem_ctrls.wrQLenPdf::62                      0                       # What write queue length does an incoming req see
system.mem_ctrls.wrQLenPdf::63                      0                       # What write queue length does an incoming req see
system.mem_ctrls.bytesPerActivate::samples      1144613                       # Bytes accessed per row activation
system.mem_ctrls.bytesPerActivate::mean    160.494924                       # Bytes accessed per row activation
system.mem_ctrls.bytesPerActivate::gmean   106.775089                       # Bytes accessed per row activation
system.mem_ctrls.bytesPerActivate::stdev   209.464343                       # Bytes accessed per row activation
system.mem_ctrls.bytesPerActivate::0-127       693386     60.58%     60.58% # Bytes accessed per row activation
system.mem_ctrls.bytesPerActivate::128-255       262948     22.97%     83.55% # Bytes accessed per row activation
system.mem_ctrls.bytesPerActivate::256-383        94646      8.27%     91.82% # Bytes accessed per row activation
system.mem_ctrls.bytesPerActivate::384-511        14972      1.31%     93.13% # Bytes accessed per row activation
system.mem_ctrls.bytesPerActivate::512-639        12731      1.11%     94.24% # Bytes accessed per row activation
system.mem_ctrls.bytesPerActivate::640-767        10458      0.91%     95.15% # Bytes accessed per row activation
system.mem_ctrls.bytesPerActivate::768-895        10534      0.92%     96.07% # Bytes accessed per row activation
system.mem_ctrls.bytesPerActivate::896-1023         8587      0.75%     96.82% # Bytes accessed per row activation
system.mem_ctrls.bytesPerActivate::1024-1151        36351      3.18%    100.00% # Bytes accessed per row activation
system.mem_ctrls.bytesPerActivate::total      1144613                       # Bytes accessed per row activation
system.mem_ctrls.rdPerTurnAround::samples        59017                       # Reads before turning the bus around for writes
system.mem_ctrls.rdPerTurnAround::mean      31.435281                       # Reads before turning the bus around for writes
system.mem_ctrls.rdPerTurnAround::stdev     70.009709                       # Reads before turning the bus around for writes
system.mem_ctrls.rdPerTurnAround::0-511         58973     99.93%     99.93% # Reads before turning the bus around for writes
system.mem_ctrls.rdPerTurnAround::512-1023           33      0.06%     99.98% # Reads before turning the bus around for writes
system.mem_ctrls.rdPerTurnAround::1024-1535            6      0.01%     99.99% # Reads before turning the bus around for writes
system.mem_ctrls.rdPerTurnAround::1536-2047            1      0.00%     99.99% # Reads before turning the bus around for writes
system.mem_ctrls.rdPerTurnAround::2048-2559            1      0.00%     99.99% # Reads before turning the bus around for writes
system.mem_ctrls.rdPerTurnAround::5120-5631            1      0.00%    100.00% # Reads before turning the bus around for writes
system.mem_ctrls.rdPerTurnAround::6656-7167            1      0.00%    100.00% # Reads before turning the bus around for writes
system.mem_ctrls.rdPerTurnAround::11776-12287            1      0.00%    100.00% # Reads before turning the bus around for writes
system.mem_ctrls.rdPerTurnAround::total         59017                       # Reads before turning the bus around for writes
system.mem_ctrls.wrPerTurnAround::samples        59017                       # Writes before turning the bus around for reads
system.mem_ctrls.wrPerTurnAround::mean      17.208194                       # Writes before turning the bus around for reads
system.mem_ctrls.wrPerTurnAround::gmean     17.176109                       # Writes before turning the bus around for reads
system.mem_ctrls.wrPerTurnAround::stdev      1.053510                       # Writes before turning the bus around for reads
system.mem_ctrls.wrPerTurnAround::16            23769     40.27%     40.27% # Writes before turning the bus around for reads
system.mem_ctrls.wrPerTurnAround::17             1825      3.09%     43.37% # Writes before turning the bus around for reads
system.mem_ctrls.wrPerTurnAround::18            31504     53.38%     96.75% # Writes before turning the bus around for reads
system.mem_ctrls.wrPerTurnAround::19             1470      2.49%     99.24% # Writes before turning the bus around for reads
system.mem_ctrls.wrPerTurnAround::20              320      0.54%     99.78% # Writes before turning the bus around for reads
system.mem_ctrls.wrPerTurnAround::21               80      0.14%     99.92% # Writes before turning the bus around for reads
system.mem_ctrls.wrPerTurnAround::22               23      0.04%     99.96% # Writes before turning the bus around for reads
system.mem_ctrls.wrPerTurnAround::23                9      0.02%     99.97% # Writes before turning the bus around for reads
system.mem_ctrls.wrPerTurnAround::24                7      0.01%     99.98% # Writes before turning the bus around for reads
system.mem_ctrls.wrPerTurnAround::25                3      0.01%     99.99% # Writes before turning the bus around for reads
system.mem_ctrls.wrPerTurnAround::26                1      0.00%     99.99% # Writes before turning the bus around for reads
system.mem_ctrls.wrPerTurnAround::27                1      0.00%     99.99% # Writes before turning the bus around for reads
system.mem_ctrls.wrPerTurnAround::28                2      0.00%     99.99% # Writes before turning the bus around for reads
system.mem_ctrls.wrPerTurnAround::29                1      0.00%    100.00% # Writes before turning the bus around for reads
system.mem_ctrls.wrPerTurnAround::30                1      0.00%    100.00% # Writes before turning the bus around for reads
system.mem_ctrls.wrPerTurnAround::41                1      0.00%    100.00% # Writes before turning the bus around for reads
system.mem_ctrls.wrPerTurnAround::total         59017                       # Writes before turning the bus around for reads
system.mem_ctrls.totQLat                  15089906205                       # Total ticks spent queuing
system.mem_ctrls.totMemAccLat             49867424955                       # Total ticks spent from burst creation until serviced by the DRAM
system.mem_ctrls.totBusLat                 9274005000                       # Total ticks spent in databus transfers
system.mem_ctrls.avgQLat                      8135.59                       # Average queueing delay per DRAM burst
system.mem_ctrls.avgBusLat                    5000.00                       # Average bus latency per DRAM burst
system.mem_ctrls.avgMemAccLat                26885.59                       # Average memory access latency per DRAM burst
system.mem_ctrls.avgRdBW                        50.01                       # Average DRAM read bandwidth in MiByte/s
system.mem_ctrls.avgWrBW                        27.38                       # Average achieved write bandwidth in MiByte/s
system.mem_ctrls.avgRdBWSys                     25.03                       # Average system read bandwidth in MiByte/s
system.mem_ctrls.avgWrBWSys                     14.17                       # Average system write bandwidth in MiByte/s
system.mem_ctrls.peakBW                      12800.00                       # Theoretical peak bandwidth in MiByte/s
system.mem_ctrls.busUtil                         0.60                       # Data bus utilization in percentage
system.mem_ctrls.busUtilRead                     0.39                       # Data bus utilization in percentage for reads
system.mem_ctrls.busUtilWrite                    0.21                       # Data bus utilization in percentage for writes
system.mem_ctrls.avgRdQLen                       1.00                       # Average read queue length when enqueuing
system.mem_ctrls.avgWrQLen                      24.46                       # Average write queue length when enqueuing
system.mem_ctrls.readRowHits                  1439557                       # Number of row buffer hits during reads
system.mem_ctrls.writeRowHits                  286207                       # Number of row buffer hits during writes
system.mem_ctrls.readRowHitRate                 77.61                       # Row buffer hit rate for reads
system.mem_ctrls.writeRowHitRate                28.18                       # Row buffer hit rate for writes
system.mem_ctrls.avgGap                     816364.55                       # Average gap between requests
system.mem_ctrls.pageHitRate                    60.12                       # Row buffer hit rate, read and write combined
system.mem_ctrls_0.actEnergy               4347173880                       # Energy for activate commands per rank (pJ)
system.mem_ctrls_0.preEnergy               2371969875                       # Energy for precharge commands per rank (pJ)
system.mem_ctrls_0.readEnergy              7510604400                       # Energy for read commands per rank (pJ)
system.mem_ctrls_0.writeEnergy             3291762240                       # Energy for write commands per rank (pJ)
system.mem_ctrls_0.refreshEnergy         155872622880                       # Energy for refresh commands per rank (pJ)
system.mem_ctrls_0.actBackEnergy         428589068220                       # Energy for active background per rank (pJ)
system.mem_ctrls_0.preBackEnergy         1055926864500                       # Energy for precharge background per rank (pJ)
system.mem_ctrls_0.totalEnergy           1657910065995                       # Total energy per rank (pJ)
system.mem_ctrls_0.averagePower            694.712210                       # Core power per rank (mW)
system.mem_ctrls_0.memoryStateTime::IDLE 1748387988501                       # Time in different power states
system.mem_ctrls_0.memoryStateTime::REF   79257360000                       # Time in different power states
system.mem_ctrls_0.memoryStateTime::PRE_PDN            0                       # Time in different power states
system.mem_ctrls_0.memoryStateTime::ACT  545883020249                       # Time in different power states
system.mem_ctrls_0.memoryStateTime::ACT_PDN            0                       # Time in different power states
system.mem_ctrls_1.actEnergy               4380173280                       # Energy for activate commands per rank (pJ)
system.mem_ctrls_1.preEnergy               2389975500                       # Energy for precharge commands per rank (pJ)
system.mem_ctrls_1.readEnergy              7519161000                       # Energy for read commands per rank (pJ)
system.mem_ctrls_1.writeEnergy             3295967760                       # Energy for write commands per rank (pJ)
system.mem_ctrls_1.refreshEnergy         155872622880                       # Energy for refresh commands per rank (pJ)
system.mem_ctrls_1.actBackEnergy         428999422050                       # Energy for active background per rank (pJ)
system.mem_ctrls_1.preBackEnergy         1055566905000                       # Energy for precharge background per rank (pJ)
system.mem_ctrls_1.totalEnergy           1658024227470                       # Total energy per rank (pJ)
system.mem_ctrls_1.averagePower            694.760047                       # Core power per rank (mW)
system.mem_ctrls_1.memoryStateTime::IDLE 1746924458000                       # Time in different power states
system.mem_ctrls_1.memoryStateTime::REF   79257360000                       # Time in different power states
system.mem_ctrls_1.memoryStateTime::PRE_PDN            0                       # Time in different power states
system.mem_ctrls_1.memoryStateTime::ACT  547347455000                       # Time in different power states
system.mem_ctrls_1.memoryStateTime::ACT_PDN            0                       # Time in different power states
system.cpu_voltage_domain.voltage                   1                       # Voltage in Volts
system.cpu_clk_domain.clock                       500                       # Clock period in ticks
system.cpu0.apic_clk_domain.clock                8000                       # Clock period in ticks
system.cpu0.numCycles                      4749286694                       # number of cpu cycles simulated
system.cpu0.numWorkItemsStarted                     0                       # number of work items this cpu started
system.cpu0.numWorkItemsCompleted                   0                       # number of work items this cpu completed
system.cpu0.kern.inst.arm                           0                       # number of arm instructions executed
system.cpu0.kern.inst.quiesce                       0                       # number of quiesce instructions executed
system.cpu0.committedInsts                    3951422                       # Number of instructions committed
system.cpu0.committedOps                      8167681                       # Number of ops (including micro ops) committed
system.cpu0.num_int_alu_accesses              7944596                       # Number of integer alu accesses
system.cpu0.num_fp_alu_accesses                   372                       # Number of float alu accesses
system.cpu0.num_func_calls                     192028                       # number of times a function call or return occured
system.cpu0.num_conditional_control_insts       625627                       # number of instructions that are conditional controls
system.cpu0.num_int_insts                     7944596                       # number of integer instructions
system.cpu0.num_fp_insts                          372                       # number of float instructions
system.cpu0.num_int_register_reads           15537981                       # number of times the integer registers were read
system.cpu0.num_int_register_writes           6546004                       # number of times the integer registers were written
system.cpu0.num_fp_register_reads                 596                       # number of times the floating registers were read
system.cpu0.num_fp_register_writes                261                       # number of times the floating registers were written
system.cpu0.num_cc_register_reads             4866850                       # number of times the CC registers were read
system.cpu0.num_cc_register_writes            3003644                       # number of times the CC registers were written
system.cpu0.num_mem_refs                      1681506                       # number of memory refs
system.cpu0.num_load_insts                    1039606                       # Number of load instructions
system.cpu0.num_store_insts                    641900                       # Number of store instructions
system.cpu0.num_idle_cycles              4729445174.529694                       # Number of idle cycles
system.cpu0.num_busy_cycles              19841519.470306                       # Number of busy cycles
system.cpu0.not_idle_fraction                0.004178                       # Percentage of non-idle cycles
system.cpu0.idle_fraction                    0.995822                       # Percentage of idle cycles
system.cpu0.Branches                           883037                       # Number of branches fetched
system.cpu0.op_class::No_OpClass                82231      1.01%      1.01% # Class of executed instruction
system.cpu0.op_class::IntAlu                  6368266     77.97%     78.98% # Class of executed instruction
system.cpu0.op_class::IntMult                    9392      0.11%     79.09% # Class of executed instruction
system.cpu0.op_class::IntDiv                    26129      0.32%     79.41% # Class of executed instruction
system.cpu0.op_class::FloatAdd                    244      0.00%     79.41% # Class of executed instruction
system.cpu0.op_class::FloatCmp                      0      0.00%     79.41% # Class of executed instruction
system.cpu0.op_class::FloatCvt                      0      0.00%     79.41% # Class of executed instruction
system.cpu0.op_class::FloatMult                     0      0.00%     79.41% # Class of executed instruction
system.cpu0.op_class::FloatDiv                      0      0.00%     79.41% # Class of executed instruction
system.cpu0.op_class::FloatSqrt                     0      0.00%     79.41% # Class of executed instruction
system.cpu0.op_class::SimdAdd                       0      0.00%     79.41% # Class of executed instruction
system.cpu0.op_class::SimdAddAcc                    0      0.00%     79.41% # Class of executed instruction
system.cpu0.op_class::SimdAlu                       0      0.00%     79.41% # Class of executed instruction
system.cpu0.op_class::SimdCmp                       0      0.00%     79.41% # Class of executed instruction
system.cpu0.op_class::SimdCvt                       0      0.00%     79.41% # Class of executed instruction
system.cpu0.op_class::SimdMisc                      0      0.00%     79.41% # Class of executed instruction
system.cpu0.op_class::SimdMult                      0      0.00%     79.41% # Class of executed instruction
system.cpu0.op_class::SimdMultAcc                   0      0.00%     79.41% # Class of executed instruction
system.cpu0.op_class::SimdShift                     0      0.00%     79.41% # Class of executed instruction
system.cpu0.op_class::SimdShiftAcc                  0      0.00%     79.41% # Class of executed instruction
system.cpu0.op_class::SimdSqrt                      0      0.00%     79.41% # Class of executed instruction
system.cpu0.op_class::SimdFloatAdd                  0      0.00%     79.41% # Class of executed instruction
system.cpu0.op_class::SimdFloatAlu                  0      0.00%     79.41% # Class of executed instruction
system.cpu0.op_class::SimdFloatCmp                  0      0.00%     79.41% # Class of executed instruction
system.cpu0.op_class::SimdFloatCvt                  0      0.00%     79.41% # Class of executed instruction
system.cpu0.op_class::SimdFloatDiv                  0      0.00%     79.41% # Class of executed instruction
system.cpu0.op_class::SimdFloatMisc                 0      0.00%     79.41% # Class of executed instruction
system.cpu0.op_class::SimdFloatMult                 0      0.00%     79.41% # Class of executed instruction
system.cpu0.op_class::SimdFloatMultAcc              0      0.00%     79.41% # Class of executed instruction
system.cpu0.op_class::SimdFloatSqrt                 0      0.00%     79.41% # Class of executed instruction
system.cpu0.op_class::MemRead                 1039606     12.73%     92.14% # Class of executed instruction
system.cpu0.op_class::MemWrite                 641900      7.86%    100.00% # Class of executed instruction
system.cpu0.op_class::IprAccess                     0      0.00%    100.00% # Class of executed instruction
system.cpu0.op_class::InstPrefetch                  0      0.00%    100.00% # Class of executed instruction
system.cpu0.op_class::total                   8167768                       # Class of executed instruction
system.cpu1.apic_clk_domain.clock                8000                       # Clock period in ticks
system.cpu1.numCycles                      4740903051                       # number of cpu cycles simulated
system.cpu1.numWorkItemsStarted                     0                       # number of work items this cpu started
system.cpu1.numWorkItemsCompleted                   0                       # number of work items this cpu completed
system.cpu1.kern.inst.arm                           0                       # number of arm instructions executed
system.cpu1.kern.inst.quiesce                       0                       # number of quiesce instructions executed
system.cpu1.committedInsts                  469414398                       # Number of instructions committed
system.cpu1.committedOps                    852021920                       # Number of ops (including micro ops) committed
system.cpu1.num_int_alu_accesses            557285331                       # Number of integer alu accesses
system.cpu1.num_fp_alu_accesses             395979627                       # Number of float alu accesses
system.cpu1.num_func_calls                     770564                       # number of times a function call or return occured
system.cpu1.num_conditional_control_insts     58967382                       # number of instructions that are conditional controls
system.cpu1.num_int_insts                   557285331                       # number of integer instructions
system.cpu1.num_fp_insts                    395979627                       # number of float instructions
system.cpu1.num_int_register_reads         1086658845                       # number of times the integer registers were read
system.cpu1.num_int_register_writes         386363429                       # number of times the integer registers were written
system.cpu1.num_fp_register_reads           482051661                       # number of times the floating registers were read
system.cpu1.num_fp_register_writes          376933717                       # number of times the floating registers were written
system.cpu1.num_cc_register_reads           346491621                       # number of times the CC registers were read
system.cpu1.num_cc_register_writes          195555343                       # number of times the CC registers were written
system.cpu1.num_mem_refs                    141340444                       # number of memory refs
system.cpu1.num_load_insts                  126656457                       # Number of load instructions
system.cpu1.num_store_insts                  14683987                       # Number of store instructions
system.cpu1.num_idle_cycles              3036277736.237171                       # Number of idle cycles
system.cpu1.num_busy_cycles              1704625314.762829                       # Number of busy cycles
system.cpu1.not_idle_fraction                0.359557                       # Percentage of non-idle cycles
system.cpu1.idle_fraction                    0.640443                       # Percentage of idle cycles
system.cpu1.Branches                         61585925                       # Number of branches fetched
system.cpu1.op_class::No_OpClass              1516522      0.18%      0.18% # Class of executed instruction
system.cpu1.op_class::IntAlu                453036271     53.17%     53.35% # Class of executed instruction
system.cpu1.op_class::IntMult                 1637062      0.19%     53.54% # Class of executed instruction
system.cpu1.op_class::IntDiv                    15267      0.00%     53.54% # Class of executed instruction
system.cpu1.op_class::FloatAdd              254492680     29.87%     83.41% # Class of executed instruction
system.cpu1.op_class::FloatCmp                      0      0.00%     83.41% # Class of executed instruction
system.cpu1.op_class::FloatCvt                      0      0.00%     83.41% # Class of executed instruction
system.cpu1.op_class::FloatMult                     0      0.00%     83.41% # Class of executed instruction
system.cpu1.op_class::FloatDiv                      0      0.00%     83.41% # Class of executed instruction
system.cpu1.op_class::FloatSqrt                     0      0.00%     83.41% # Class of executed instruction
system.cpu1.op_class::SimdAdd                       0      0.00%     83.41% # Class of executed instruction
system.cpu1.op_class::SimdAddAcc                    0      0.00%     83.41% # Class of executed instruction
system.cpu1.op_class::SimdAlu                       0      0.00%     83.41% # Class of executed instruction
system.cpu1.op_class::SimdCmp                       0      0.00%     83.41% # Class of executed instruction
system.cpu1.op_class::SimdCvt                       0      0.00%     83.41% # Class of executed instruction
system.cpu1.op_class::SimdMisc                      0      0.00%     83.41% # Class of executed instruction
system.cpu1.op_class::SimdMult                      0      0.00%     83.41% # Class of executed instruction
system.cpu1.op_class::SimdMultAcc                   0      0.00%     83.41% # Class of executed instruction
system.cpu1.op_class::SimdShift                     0      0.00%     83.41% # Class of executed instruction
system.cpu1.op_class::SimdShiftAcc                  0      0.00%     83.41% # Class of executed instruction
system.cpu1.op_class::SimdSqrt                      0      0.00%     83.41% # Class of executed instruction
system.cpu1.op_class::SimdFloatAdd                  0      0.00%     83.41% # Class of executed instruction
system.cpu1.op_class::SimdFloatAlu                  0      0.00%     83.41% # Class of executed instruction
system.cpu1.op_class::SimdFloatCmp                  0      0.00%     83.41% # Class of executed instruction
system.cpu1.op_class::SimdFloatCvt                  0      0.00%     83.41% # Class of executed instruction
system.cpu1.op_class::SimdFloatDiv                  0      0.00%     83.41% # Class of executed instruction
system.cpu1.op_class::SimdFloatMisc                 0      0.00%     83.41% # Class of executed instruction
system.cpu1.op_class::SimdFloatMult                 0      0.00%     83.41% # Class of executed instruction
system.cpu1.op_class::SimdFloatMultAcc              0      0.00%     83.41% # Class of executed instruction
system.cpu1.op_class::SimdFloatSqrt                 0      0.00%     83.41% # Class of executed instruction
system.cpu1.op_class::MemRead               126656457     14.87%     98.28% # Class of executed instruction
system.cpu1.op_class::MemWrite               14683987      1.72%    100.00% # Class of executed instruction
system.cpu1.op_class::IprAccess                     0      0.00%    100.00% # Class of executed instruction
system.cpu1.op_class::InstPrefetch                  0      0.00%    100.00% # Class of executed instruction
system.cpu1.op_class::total                 852038246                       # Class of executed instruction
system.cpu2.apic_clk_domain.clock                8000                       # Clock period in ticks
system.cpu2.numCycles                      4744894474                       # number of cpu cycles simulated
system.cpu2.numWorkItemsStarted                     0                       # number of work items this cpu started
system.cpu2.numWorkItemsCompleted                   0                       # number of work items this cpu completed
system.cpu2.kern.inst.arm                           0                       # number of arm instructions executed
system.cpu2.kern.inst.quiesce                       0                       # number of quiesce instructions executed
system.cpu2.committedInsts                    4732104                       # Number of instructions committed
system.cpu2.committedOps                      9514821                       # Number of ops (including micro ops) committed
system.cpu2.num_int_alu_accesses              9343895                       # Number of integer alu accesses
system.cpu2.num_fp_alu_accesses                  1778                       # Number of float alu accesses
system.cpu2.num_func_calls                     245746                       # number of times a function call or return occured
system.cpu2.num_conditional_control_insts       817509                       # number of instructions that are conditional controls
system.cpu2.num_int_insts                     9343895                       # number of integer instructions
system.cpu2.num_fp_insts                         1778                       # number of float instructions
system.cpu2.num_int_register_reads           18493522                       # number of times the integer registers were read
system.cpu2.num_int_register_writes           7607583                       # number of times the integer registers were written
system.cpu2.num_fp_register_reads                2988                       # number of times the floating registers were read
system.cpu2.num_fp_register_writes               1416                       # number of times the floating registers were written
system.cpu2.num_cc_register_reads             6102602                       # number of times the CC registers were read
system.cpu2.num_cc_register_writes            3244562                       # number of times the CC registers were written
system.cpu2.num_mem_refs                      2119307                       # number of memory refs
system.cpu2.num_load_insts                    1373382                       # Number of load instructions
system.cpu2.num_store_insts                    745925                       # Number of store instructions
system.cpu2.num_idle_cycles              4724605927.234034                       # Number of idle cycles
system.cpu2.num_busy_cycles              20288546.765967                       # Number of busy cycles
system.cpu2.not_idle_fraction                0.004276                       # Percentage of non-idle cycles
system.cpu2.idle_fraction                    0.995724                       # Percentage of idle cycles
system.cpu2.Branches                          1109084                       # Number of branches fetched
system.cpu2.op_class::No_OpClass                74248      0.78%      0.78% # Class of executed instruction
system.cpu2.op_class::IntAlu                  7286022     76.57%     77.36% # Class of executed instruction
system.cpu2.op_class::IntMult                    8870      0.09%     77.45% # Class of executed instruction
system.cpu2.op_class::IntDiv                    25121      0.26%     77.71% # Class of executed instruction
system.cpu2.op_class::FloatAdd                   1344      0.01%     77.73% # Class of executed instruction
system.cpu2.op_class::FloatCmp                      0      0.00%     77.73% # Class of executed instruction
system.cpu2.op_class::FloatCvt                      0      0.00%     77.73% # Class of executed instruction
system.cpu2.op_class::FloatMult                     0      0.00%     77.73% # Class of executed instruction
system.cpu2.op_class::FloatDiv                      0      0.00%     77.73% # Class of executed instruction
system.cpu2.op_class::FloatSqrt                     0      0.00%     77.73% # Class of executed instruction
system.cpu2.op_class::SimdAdd                       0      0.00%     77.73% # Class of executed instruction
system.cpu2.op_class::SimdAddAcc                    0      0.00%     77.73% # Class of executed instruction
system.cpu2.op_class::SimdAlu                       0      0.00%     77.73% # Class of executed instruction
system.cpu2.op_class::SimdCmp                       0      0.00%     77.73% # Class of executed instruction
system.cpu2.op_class::SimdCvt                       0      0.00%     77.73% # Class of executed instruction
system.cpu2.op_class::SimdMisc                      0      0.00%     77.73% # Class of executed instruction
system.cpu2.op_class::SimdMult                      0      0.00%     77.73% # Class of executed instruction
system.cpu2.op_class::SimdMultAcc                   0      0.00%     77.73% # Class of executed instruction
system.cpu2.op_class::SimdShift                     0      0.00%     77.73% # Class of executed instruction
system.cpu2.op_class::SimdShiftAcc                  0      0.00%     77.73% # Class of executed instruction
system.cpu2.op_class::SimdSqrt                      0      0.00%     77.73% # Class of executed instruction
system.cpu2.op_class::SimdFloatAdd                  0      0.00%     77.73% # Class of executed instruction
system.cpu2.op_class::SimdFloatAlu                  0      0.00%     77.73% # Class of executed instruction
system.cpu2.op_class::SimdFloatCmp                  0      0.00%     77.73% # Class of executed instruction
system.cpu2.op_class::SimdFloatCvt                  0      0.00%     77.73% # Class of executed instruction
system.cpu2.op_class::SimdFloatDiv                  0      0.00%     77.73% # Class of executed instruction
system.cpu2.op_class::SimdFloatMisc                 0      0.00%     77.73% # Class of executed instruction
system.cpu2.op_class::SimdFloatMult                 0      0.00%     77.73% # Class of executed instruction
system.cpu2.op_class::SimdFloatMultAcc              0      0.00%     77.73% # Class of executed instruction
system.cpu2.op_class::SimdFloatSqrt                 0      0.00%     77.73% # Class of executed instruction
system.cpu2.op_class::MemRead                 1373382     14.43%     92.16% # Class of executed instruction
system.cpu2.op_class::MemWrite                 745925      7.84%    100.00% # Class of executed instruction
system.cpu2.op_class::IprAccess                     0      0.00%    100.00% # Class of executed instruction
system.cpu2.op_class::InstPrefetch                  0      0.00%    100.00% # Class of executed instruction
system.cpu2.op_class::total                   9514912                       # Class of executed instruction
system.cpu3.apic_clk_domain.clock                8000                       # Clock period in ticks
system.cpu3.numCycles                      4751082224                       # number of cpu cycles simulated
system.cpu3.numWorkItemsStarted                     0                       # number of work items this cpu started
system.cpu3.numWorkItemsCompleted                   0                       # number of work items this cpu completed
system.cpu3.kern.inst.arm                           0                       # number of arm instructions executed
system.cpu3.kern.inst.quiesce                       0                       # number of quiesce instructions executed
system.cpu3.committedInsts                  830270859                       # Number of instructions committed
system.cpu3.committedOps                   1501318870                       # Number of ops (including micro ops) committed
system.cpu3.num_int_alu_accesses            954007315                       # Number of integer alu accesses
system.cpu3.num_fp_alu_accesses             734302567                       # Number of float alu accesses
system.cpu3.num_func_calls                     142431                       # number of times a function call or return occured
system.cpu3.num_conditional_control_insts    102301156                       # number of instructions that are conditional controls
system.cpu3.num_int_insts                   954007315                       # number of integer instructions
system.cpu3.num_fp_insts                    734302567                       # number of float instructions
system.cpu3.num_int_register_reads         1862524518                       # number of times the integer registers were read
system.cpu3.num_int_register_writes         651195858                       # number of times the integer registers were written
system.cpu3.num_fp_register_reads           900424398                       # number of times the floating registers were read
system.cpu3.num_fp_register_writes          698459968                       # number of times the floating registers were written
system.cpu3.num_cc_register_reads           595430479                       # number of times the CC registers were read
system.cpu3.num_cc_register_writes          333979417                       # number of times the CC registers were written
system.cpu3.num_mem_refs                    248007806                       # number of memory refs
system.cpu3.num_load_insts                  223931297                       # Number of load instructions
system.cpu3.num_store_insts                  24076509                       # Number of store instructions
system.cpu3.num_idle_cycles              1721810207.197711                       # Number of idle cycles
system.cpu3.num_busy_cycles              3029272016.802289                       # Number of busy cycles
system.cpu3.not_idle_fraction                0.637596                       # Percentage of non-idle cycles
system.cpu3.idle_fraction                    0.362404                       # Percentage of idle cycles
system.cpu3.Branches                        105223351                       # Number of branches fetched
system.cpu3.op_class::No_OpClass              2456166      0.16%      0.16% # Class of executed instruction
system.cpu3.op_class::IntAlu                779265562     51.91%     52.07% # Class of executed instruction
system.cpu3.op_class::IntMult                 2639739      0.18%     52.24% # Class of executed instruction
system.cpu3.op_class::IntDiv                    10289      0.00%     52.25% # Class of executed instruction
system.cpu3.op_class::FloatAdd              468939331     31.24%     83.48% # Class of executed instruction
system.cpu3.op_class::FloatCmp                      0      0.00%     83.48% # Class of executed instruction
system.cpu3.op_class::FloatCvt                      0      0.00%     83.48% # Class of executed instruction
system.cpu3.op_class::FloatMult                     0      0.00%     83.48% # Class of executed instruction
system.cpu3.op_class::FloatDiv                      0      0.00%     83.48% # Class of executed instruction
system.cpu3.op_class::FloatSqrt                     0      0.00%     83.48% # Class of executed instruction
system.cpu3.op_class::SimdAdd                       0      0.00%     83.48% # Class of executed instruction
system.cpu3.op_class::SimdAddAcc                    0      0.00%     83.48% # Class of executed instruction
system.cpu3.op_class::SimdAlu                       0      0.00%     83.48% # Class of executed instruction
system.cpu3.op_class::SimdCmp                       0      0.00%     83.48% # Class of executed instruction
system.cpu3.op_class::SimdCvt                       0      0.00%     83.48% # Class of executed instruction
system.cpu3.op_class::SimdMisc                      0      0.00%     83.48% # Class of executed instruction
system.cpu3.op_class::SimdMult                      0      0.00%     83.48% # Class of executed instruction
system.cpu3.op_class::SimdMultAcc                   0      0.00%     83.48% # Class of executed instruction
system.cpu3.op_class::SimdShift                     0      0.00%     83.48% # Class of executed instruction
system.cpu3.op_class::SimdShiftAcc                  0      0.00%     83.48% # Class of executed instruction
system.cpu3.op_class::SimdSqrt                      0      0.00%     83.48% # Class of executed instruction
system.cpu3.op_class::SimdFloatAdd                  0      0.00%     83.48% # Class of executed instruction
system.cpu3.op_class::SimdFloatAlu                  0      0.00%     83.48% # Class of executed instruction
system.cpu3.op_class::SimdFloatCmp                  0      0.00%     83.48% # Class of executed instruction
system.cpu3.op_class::SimdFloatCvt                  0      0.00%     83.48% # Class of executed instruction
system.cpu3.op_class::SimdFloatDiv                  0      0.00%     83.48% # Class of executed instruction
system.cpu3.op_class::SimdFloatMisc                 0      0.00%     83.48% # Class of executed instruction
system.cpu3.op_class::SimdFloatMult                 0      0.00%     83.48% # Class of executed instruction
system.cpu3.op_class::SimdFloatMultAcc              0      0.00%     83.48% # Class of executed instruction
system.cpu3.op_class::SimdFloatSqrt                 0      0.00%     83.48% # Class of executed instruction
system.cpu3.op_class::MemRead               223931297     14.92%     98.40% # Class of executed instruction
system.cpu3.op_class::MemWrite               24076509      1.60%    100.00% # Class of executed instruction
system.cpu3.op_class::IprAccess                     0      0.00%    100.00% # Class of executed instruction
system.cpu3.op_class::InstPrefetch                  0      0.00%    100.00% # Class of executed instruction
system.cpu3.op_class::total                1501318893                       # Class of executed instruction
system.iobus.trans_dist::ReadReq                  416                       # Transaction distribution
system.iobus.trans_dist::ReadResp                 416                       # Transaction distribution
system.iobus.trans_dist::WriteReq                3108                       # Transaction distribution
system.iobus.trans_dist::WriteResp               3108                       # Transaction distribution
system.iobus.trans_dist::MessageReq                59                       # Transaction distribution
system.iobus.trans_dist::MessageResp               59                       # Transaction distribution
system.iobus.pkt_count_system.pc.south_bridge.io_apic.int_master::system.ruby.l1_cntrl0.sequencer.pio-slave-port           24                       # Packet count per connected master and slave (bytes)
system.iobus.pkt_count_system.pc.south_bridge.io_apic.int_master::system.ruby.l1_cntrl1.sequencer.pio-slave-port           22                       # Packet count per connected master and slave (bytes)
system.iobus.pkt_count_system.pc.south_bridge.io_apic.int_master::system.ruby.l1_cntrl2.sequencer.pio-slave-port           22                       # Packet count per connected master and slave (bytes)
system.iobus.pkt_count_system.pc.south_bridge.io_apic.int_master::system.ruby.l1_cntrl3.sequencer.pio-slave-port           24                       # Packet count per connected master and slave (bytes)
system.iobus.pkt_count_system.pc.south_bridge.io_apic.int_master::total           92                       # Packet count per connected master and slave (bytes)
system.iobus.pkt_count_system.ruby.l1_cntrl0.sequencer.mem-master-port::system.pc.south_bridge.ide.pio          426                       # Packet count per connected master and slave (bytes)
system.iobus.pkt_count_system.ruby.l1_cntrl0.sequencer.mem-master-port::system.pc.south_bridge.io_apic.pio           14                       # Packet count per connected master and slave (bytes)
system.iobus.pkt_count_system.ruby.l1_cntrl0.sequencer.mem-master-port::system.pc.com_1.pio          162                       # Packet count per connected master and slave (bytes)
system.iobus.pkt_count_system.ruby.l1_cntrl0.sequencer.mem-master-port::system.ruby.l1_cntrl0.sequencer.pio-slave-port         1244                       # Packet count per connected master and slave (bytes)
system.iobus.pkt_count_system.ruby.l1_cntrl0.sequencer.mem-master-port::system.ruby.l1_cntrl1.sequencer.pio-slave-port            4                       # Packet count per connected master and slave (bytes)
system.iobus.pkt_count_system.ruby.l1_cntrl0.sequencer.mem-master-port::system.ruby.l1_cntrl3.sequencer.pio-slave-port            4                       # Packet count per connected master and slave (bytes)
system.iobus.pkt_count_system.ruby.l1_cntrl0.sequencer.mem-master-port::total         1854                       # Packet count per connected master and slave (bytes)
system.iobus.pkt_count_system.ruby.l1_cntrl1.sequencer.mem-master-port::system.pc.south_bridge.ide.pio          596                       # Packet count per connected master and slave (bytes)
system.iobus.pkt_count_system.ruby.l1_cntrl1.sequencer.mem-master-port::system.pc.south_bridge.io_apic.pio            8                       # Packet count per connected master and slave (bytes)
system.iobus.pkt_count_system.ruby.l1_cntrl1.sequencer.mem-master-port::system.ruby.l1_cntrl0.sequencer.pio-slave-port            2                       # Packet count per connected master and slave (bytes)
system.iobus.pkt_count_system.ruby.l1_cntrl1.sequencer.mem-master-port::system.ruby.l1_cntrl1.sequencer.pio-slave-port         1228                       # Packet count per connected master and slave (bytes)
system.iobus.pkt_count_system.ruby.l1_cntrl1.sequencer.mem-master-port::system.ruby.l1_cntrl2.sequencer.pio-slave-port            2                       # Packet count per connected master and slave (bytes)
system.iobus.pkt_count_system.ruby.l1_cntrl1.sequencer.mem-master-port::total         1836                       # Packet count per connected master and slave (bytes)
system.iobus.pkt_count_system.ruby.l1_cntrl2.sequencer.mem-master-port::system.pc.south_bridge.ide.pio          392                       # Packet count per connected master and slave (bytes)
system.iobus.pkt_count_system.ruby.l1_cntrl2.sequencer.mem-master-port::system.pc.south_bridge.io_apic.pio            6                       # Packet count per connected master and slave (bytes)
system.iobus.pkt_count_system.ruby.l1_cntrl2.sequencer.mem-master-port::system.pc.com_1.pio           22                       # Packet count per connected master and slave (bytes)
system.iobus.pkt_count_system.ruby.l1_cntrl2.sequencer.mem-master-port::system.ruby.l1_cntrl0.sequencer.pio-slave-port            2                       # Packet count per connected master and slave (bytes)
system.iobus.pkt_count_system.ruby.l1_cntrl2.sequencer.mem-master-port::system.ruby.l1_cntrl1.sequencer.pio-slave-port            2                       # Packet count per connected master and slave (bytes)
system.iobus.pkt_count_system.ruby.l1_cntrl2.sequencer.mem-master-port::system.ruby.l1_cntrl2.sequencer.pio-slave-port         1228                       # Packet count per connected master and slave (bytes)
system.iobus.pkt_count_system.ruby.l1_cntrl2.sequencer.mem-master-port::system.ruby.l1_cntrl3.sequencer.pio-slave-port            2                       # Packet count per connected master and slave (bytes)
system.iobus.pkt_count_system.ruby.l1_cntrl2.sequencer.mem-master-port::total         1654                       # Packet count per connected master and slave (bytes)
system.iobus.pkt_count_system.ruby.l1_cntrl3.sequencer.mem-master-port::system.pc.south_bridge.ide.pio          472                       # Packet count per connected master and slave (bytes)
system.iobus.pkt_count_system.ruby.l1_cntrl3.sequencer.mem-master-port::system.pc.south_bridge.io_apic.pio            8                       # Packet count per connected master and slave (bytes)
system.iobus.pkt_count_system.ruby.l1_cntrl3.sequencer.mem-master-port::system.ruby.l1_cntrl0.sequencer.pio-slave-port            6                       # Packet count per connected master and slave (bytes)
system.iobus.pkt_count_system.ruby.l1_cntrl3.sequencer.mem-master-port::system.ruby.l1_cntrl1.sequencer.pio-slave-port            2                       # Packet count per connected master and slave (bytes)
system.iobus.pkt_count_system.ruby.l1_cntrl3.sequencer.mem-master-port::system.ruby.l1_cntrl3.sequencer.pio-slave-port         1242                       # Packet count per connected master and slave (bytes)
system.iobus.pkt_count_system.ruby.l1_cntrl3.sequencer.mem-master-port::total         1730                       # Packet count per connected master and slave (bytes)
system.iobus.pkt_count::total                    7166                       # Packet count per connected master and slave (bytes)
system.iobus.pkt_size_system.pc.south_bridge.io_apic.int_master::system.ruby.l1_cntrl0.sequencer.pio-slave-port           48                       # Cumulative packet size per connected master and slave (bytes)
system.iobus.pkt_size_system.pc.south_bridge.io_apic.int_master::system.ruby.l1_cntrl1.sequencer.pio-slave-port           44                       # Cumulative packet size per connected master and slave (bytes)
system.iobus.pkt_size_system.pc.south_bridge.io_apic.int_master::system.ruby.l1_cntrl2.sequencer.pio-slave-port           44                       # Cumulative packet size per connected master and slave (bytes)
system.iobus.pkt_size_system.pc.south_bridge.io_apic.int_master::system.ruby.l1_cntrl3.sequencer.pio-slave-port           48                       # Cumulative packet size per connected master and slave (bytes)
system.iobus.pkt_size_system.pc.south_bridge.io_apic.int_master::total          184                       # Cumulative packet size per connected master and slave (bytes)
system.iobus.pkt_size_system.ruby.l1_cntrl0.sequencer.mem-master-port::system.pc.south_bridge.ide.pio          240                       # Cumulative packet size per connected master and slave (bytes)
system.iobus.pkt_size_system.ruby.l1_cntrl0.sequencer.mem-master-port::system.pc.south_bridge.io_apic.pio           28                       # Cumulative packet size per connected master and slave (bytes)
system.iobus.pkt_size_system.ruby.l1_cntrl0.sequencer.mem-master-port::system.pc.com_1.pio           81                       # Cumulative packet size per connected master and slave (bytes)
system.iobus.pkt_size_system.ruby.l1_cntrl0.sequencer.mem-master-port::system.ruby.l1_cntrl0.sequencer.pio-slave-port         2488                       # Cumulative packet size per connected master and slave (bytes)
system.iobus.pkt_size_system.ruby.l1_cntrl0.sequencer.mem-master-port::system.ruby.l1_cntrl1.sequencer.pio-slave-port            8                       # Cumulative packet size per connected master and slave (bytes)
system.iobus.pkt_size_system.ruby.l1_cntrl0.sequencer.mem-master-port::system.ruby.l1_cntrl3.sequencer.pio-slave-port            8                       # Cumulative packet size per connected master and slave (bytes)
system.iobus.pkt_size_system.ruby.l1_cntrl0.sequencer.mem-master-port::total         2853                       # Cumulative packet size per connected master and slave (bytes)
system.iobus.pkt_size_system.ruby.l1_cntrl1.sequencer.mem-master-port::system.pc.south_bridge.ide.pio          340                       # Cumulative packet size per connected master and slave (bytes)
system.iobus.pkt_size_system.ruby.l1_cntrl1.sequencer.mem-master-port::system.pc.south_bridge.io_apic.pio           16                       # Cumulative packet size per connected master and slave (bytes)
system.iobus.pkt_size_system.ruby.l1_cntrl1.sequencer.mem-master-port::system.ruby.l1_cntrl0.sequencer.pio-slave-port            4                       # Cumulative packet size per connected master and slave (bytes)
system.iobus.pkt_size_system.ruby.l1_cntrl1.sequencer.mem-master-port::system.ruby.l1_cntrl1.sequencer.pio-slave-port         2456                       # Cumulative packet size per connected master and slave (bytes)
system.iobus.pkt_size_system.ruby.l1_cntrl1.sequencer.mem-master-port::system.ruby.l1_cntrl2.sequencer.pio-slave-port            4                       # Cumulative packet size per connected master and slave (bytes)
system.iobus.pkt_size_system.ruby.l1_cntrl1.sequencer.mem-master-port::total         2820                       # Cumulative packet size per connected master and slave (bytes)
system.iobus.pkt_size_system.ruby.l1_cntrl2.sequencer.mem-master-port::system.pc.south_bridge.ide.pio          220                       # Cumulative packet size per connected master and slave (bytes)
system.iobus.pkt_size_system.ruby.l1_cntrl2.sequencer.mem-master-port::system.pc.south_bridge.io_apic.pio           12                       # Cumulative packet size per connected master and slave (bytes)
system.iobus.pkt_size_system.ruby.l1_cntrl2.sequencer.mem-master-port::system.pc.com_1.pio           11                       # Cumulative packet size per connected master and slave (bytes)
system.iobus.pkt_size_system.ruby.l1_cntrl2.sequencer.mem-master-port::system.ruby.l1_cntrl0.sequencer.pio-slave-port            4                       # Cumulative packet size per connected master and slave (bytes)
system.iobus.pkt_size_system.ruby.l1_cntrl2.sequencer.mem-master-port::system.ruby.l1_cntrl1.sequencer.pio-slave-port            4                       # Cumulative packet size per connected master and slave (bytes)
system.iobus.pkt_size_system.ruby.l1_cntrl2.sequencer.mem-master-port::system.ruby.l1_cntrl2.sequencer.pio-slave-port         2456                       # Cumulative packet size per connected master and slave (bytes)
system.iobus.pkt_size_system.ruby.l1_cntrl2.sequencer.mem-master-port::system.ruby.l1_cntrl3.sequencer.pio-slave-port            4                       # Cumulative packet size per connected master and slave (bytes)
system.iobus.pkt_size_system.ruby.l1_cntrl2.sequencer.mem-master-port::total         2711                       # Cumulative packet size per connected master and slave (bytes)
system.iobus.pkt_size_system.ruby.l1_cntrl3.sequencer.mem-master-port::system.pc.south_bridge.ide.pio          266                       # Cumulative packet size per connected master and slave (bytes)
system.iobus.pkt_size_system.ruby.l1_cntrl3.sequencer.mem-master-port::system.pc.south_bridge.io_apic.pio           16                       # Cumulative packet size per connected master and slave (bytes)
system.iobus.pkt_size_system.ruby.l1_cntrl3.sequencer.mem-master-port::system.ruby.l1_cntrl0.sequencer.pio-slave-port           12                       # Cumulative packet size per connected master and slave (bytes)
system.iobus.pkt_size_system.ruby.l1_cntrl3.sequencer.mem-master-port::system.ruby.l1_cntrl1.sequencer.pio-slave-port            4                       # Cumulative packet size per connected master and slave (bytes)
system.iobus.pkt_size_system.ruby.l1_cntrl3.sequencer.mem-master-port::system.ruby.l1_cntrl3.sequencer.pio-slave-port         2484                       # Cumulative packet size per connected master and slave (bytes)
system.iobus.pkt_size_system.ruby.l1_cntrl3.sequencer.mem-master-port::total         2782                       # Cumulative packet size per connected master and slave (bytes)
system.iobus.pkt_size::total                    11350                       # Cumulative packet size per connected master and slave (bytes)
system.iobus.reqLayer2.occupancy              1633000                       # Layer occupancy (ticks)
system.iobus.reqLayer2.utilization                0.0                       # Layer utilization (%)
system.iobus.reqLayer8.occupancy                32496                       # Layer occupancy (ticks)
system.iobus.reqLayer8.utilization                0.0                       # Layer utilization (%)
system.iobus.reqLayer12.occupancy              120000                       # Layer occupancy (ticks)
system.iobus.reqLayer12.utilization               0.0                       # Layer utilization (%)
system.iobus.reqLayer17.occupancy             1585489                       # Layer occupancy (ticks)
system.iobus.reqLayer17.utilization               0.0                       # Layer utilization (%)
system.iobus.reqLayer18.occupancy             1612794                       # Layer occupancy (ticks)
system.iobus.reqLayer18.utilization               0.0                       # Layer utilization (%)
system.iobus.reqLayer19.occupancy             1559488                       # Layer occupancy (ticks)
system.iobus.reqLayer19.utilization               0.0                       # Layer utilization (%)
system.iobus.reqLayer20.occupancy             1651158                       # Layer occupancy (ticks)
system.iobus.reqLayer20.utilization               0.0                       # Layer utilization (%)
system.iobus.respLayer0.occupancy               77959                       # Layer occupancy (ticks)
system.iobus.respLayer0.utilization               0.0                       # Layer utilization (%)
system.iobus.respLayer2.occupancy             1380000                       # Layer occupancy (ticks)
system.iobus.respLayer2.utilization               0.0                       # Layer utilization (%)
system.iobus.respLayer4.occupancy             1325000                       # Layer occupancy (ticks)
system.iobus.respLayer4.utilization               0.0                       # Layer utilization (%)
system.iobus.respLayer6.occupancy             1218000                       # Layer occupancy (ticks)
system.iobus.respLayer6.utilization               0.0                       # Layer utilization (%)
system.iobus.respLayer8.occupancy             1265500                       # Layer occupancy (ticks)
system.iobus.respLayer8.utilization               0.0                       # Layer utilization (%)
system.pc.south_bridge.ide.disks.dma_read_full_pages          357                       # Number of full page size DMA reads (not PRD).
system.pc.south_bridge.ide.disks.dma_read_bytes      1462272                       # Number of bytes transfered via DMA reads (not PRD).
system.pc.south_bridge.ide.disks.dma_read_txs          357                       # Number of DMA read transactions (not PRD).
system.pc.south_bridge.ide.disks.dma_write_full_pages            0                       # Number of full page size DMA writes.
system.pc.south_bridge.ide.disks.dma_write_bytes            0                       # Number of bytes transfered via DMA writes.
system.pc.south_bridge.ide.disks.dma_write_txs            0                       # Number of DMA write transactions.
system.ruby.clk_domain.clock                      500                       # Clock period in ticks
system.ruby.outstanding_req_hist_seqr::bucket_size            1                      
system.ruby.outstanding_req_hist_seqr::max_bucket            9                      
system.ruby.outstanding_req_hist_seqr::samples   2280749182                      
system.ruby.outstanding_req_hist_seqr::mean     1.004798                      
system.ruby.outstanding_req_hist_seqr::gmean     1.003331                      
system.ruby.outstanding_req_hist_seqr::stdev     0.069103                      
system.ruby.outstanding_req_hist_seqr    |           0      0.00%      0.00% |  2269805473     99.52%     99.52% |    10943709      0.48%    100.00% |           0      0.00%    100.00% |           0      0.00%    100.00% |           0      0.00%    100.00% |           0      0.00%    100.00% |           0      0.00%    100.00% |           0      0.00%    100.00% |           0      0.00%    100.00%
system.ruby.outstanding_req_hist_seqr::total   2280749182                      
system.ruby.latency_hist_seqr::bucket_size          128                      
system.ruby.latency_hist_seqr::max_bucket         1279                      
system.ruby.latency_hist_seqr::samples     2280749182                      
system.ruby.latency_hist_seqr::mean          1.097743                      
system.ruby.latency_hist_seqr::gmean         1.005519                      
[...]
system.ruby.L1Cache_Controller.O.Other_GETS::total        67080                      
system.ruby.L1Cache_Controller.M.Load    |      100480      0.04%      0.04% |   100977250     41.44%     41.48% |     3818459      1.57%     43.05% |   138776172     56.95%    100.00%
system.ruby.L1Cache_Controller.M.Load::total    243672361                      
system.ruby.L1Cache_Controller.M.Ifetch  |      312373      0.04%      0.04% |   657166232     90.22%     90.26% |    70106061      9.62%     99.88% |      841210      0.12%    100.00%
system.ruby.L1Cache_Controller.M.Ifetch::total    728425876                      
system.ruby.L1Cache_Controller.M.Store   |       23761      5.20%      5.20% |      119723     26.21%     31.41% |       86120     18.85%     50.27% |      227148     49.73%    100.00%
system.ruby.L1Cache_Controller.M.Store::total       456752                      
system.ruby.L1Cache_Controller.M.L2_Replacement |        1393      0.17%      0.17% |      231266     27.41%     27.58% |       91005     10.79%     38.37% |      519942     61.63%    100.00%
system.ruby.L1Cache_Controller.M.L2_Replacement::total       843606                      
system.ruby.L1Cache_Controller.M.L1_to_L2 |       24009      1.41%      1.41% |      540096     31.70%     33.11% |      127961      7.51%     40.62% |     1011838     59.38%    100.00%
system.ruby.L1Cache_Controller.M.L1_to_L2::total      1703904                      
system.ruby.L1Cache_Controller.M.Trigger_L2_to_L1D |        2394      0.34%      0.34% |      247227     34.85%     35.19% |        8807      1.24%     36.43% |      450895     63.57%    100.00%
system.ruby.L1Cache_Controller.M.Trigger_L2_to_L1D::total       709323                      
system.ruby.L1Cache_Controller.M.Trigger_L2_to_L1I |        5025     16.56%     16.56% |        6595     21.74%     38.30% |       18558     61.17%     99.47% |         161      0.53%    100.00%
system.ruby.L1Cache_Controller.M.Trigger_L2_to_L1I::total        30339                      
system.ruby.L1Cache_Controller.M.Other_GETX |         684      1.93%      1.93% |       32784     92.74%     94.67% |        1299      3.67%     98.35% |         584      1.65%    100.00%
system.ruby.L1Cache_Controller.M.Other_GETX::total        35351                      
system.ruby.L1Cache_Controller.M.Other_GETS |       20201     28.07%     28.07% |       19428     26.99%     55.06% |       10820     15.03%     70.10% |       21520     29.90%    100.00%
system.ruby.L1Cache_Controller.M.Other_GETS::total        71969                      
system.ruby.L1Cache_Controller.M.Merged_GETS |          11     22.92%     22.92% |           7     14.58%     37.50% |           3      6.25%     43.75% |          27     56.25%    100.00%
system.ruby.L1Cache_Controller.M.Merged_GETS::total           48                      
system.ruby.L1Cache_Controller.MM.Load   |      673229      0.72%      0.72% |    28376796     30.21%     30.93% |    17243166     18.36%     49.29% |    47624329     50.71%    100.00%
system.ruby.L1Cache_Controller.MM.Load::total     93917520                      
system.ruby.L1Cache_Controller.MM.Store  |      846588      1.59%      1.59% |    15373606     28.95%     30.54% |    12615806     23.75%     54.29% |    24275492     45.71%    100.00%
system.ruby.L1Cache_Controller.MM.Store::total     53111492                      
system.ruby.L1Cache_Controller.MM.L2_Replacement |        3497      0.31%      0.31% |      356130     31.80%     32.11% |      134072     11.97%     44.08% |      626310     55.92%    100.00%
system.ruby.L1Cache_Controller.MM.L2_Replacement::total      1120009                      
system.ruby.L1Cache_Controller.MM.L1_to_L2 |       53384      2.91%      2.91% |      542346     29.59%     32.50% |      322674     17.61%     50.11% |      914355     49.89%    100.00%
system.ruby.L1Cache_Controller.MM.L1_to_L2::total      1832759                      
system.ruby.L1Cache_Controller.MM.Trigger_L2_to_L1D |       19594      3.46%      3.46% |      149123     26.33%     29.79% |      137255     24.23%     54.02% |      260415     45.98%    100.00%
system.ruby.L1Cache_Controller.MM.Trigger_L2_to_L1D::total       566387                      
system.ruby.L1Cache_Controller.MM.Other_GETX |       15574     54.27%     54.27% |        3592     12.52%     66.79% |        8062     28.09%     94.88% |        1468      5.12%    100.00%
system.ruby.L1Cache_Controller.MM.Other_GETX::total        28696                      
system.ruby.L1Cache_Controller.MM.Other_GETS |       43727     44.84%     44.84% |       18601     19.07%     63.91% |       16863     17.29%     81.20% |       18332     18.80%    100.00%
system.ruby.L1Cache_Controller.MM.Other_GETS::total        97523                      
system.ruby.L1Cache_Controller.MM.Merged_GETS |           9     11.54%     11.54% |          12     15.38%     26.92% |          18     23.08%     50.00% |          39     50.00%    100.00%
system.ruby.L1Cache_Controller.MM.Merged_GETS::total           78                      
system.ruby.L1Cache_Controller.SR.Load   |        6709      7.95%      7.95% |       18322     21.72%     29.67% |       28968     34.34%     64.01% |       30364     35.99%    100.00%
system.ruby.L1Cache_Controller.SR.Load::total        84363                      
system.ruby.L1Cache_Controller.SR.Ifetch |       34420     17.85%     17.85% |       61866     32.09%     49.95% |       56744     29.44%     79.38% |       39746     20.62%    100.00%
system.ruby.L1Cache_Controller.SR.Ifetch::total       192776                      
system.ruby.L1Cache_Controller.SR.Store  |         807     21.81%     21.81% |         557     15.05%     36.86% |        1263     34.14%     71.00% |        1073     29.00%    100.00%
system.ruby.L1Cache_Controller.SR.Store::total         3700                      
system.ruby.L1Cache_Controller.OR.Load   |        4241     28.46%     28.46% |        1488      9.99%     38.45% |        7373     49.49%     87.94% |        1797     12.06%    100.00%
system.ruby.L1Cache_Controller.OR.Load::total        14899                      
system.ruby.L1Cache_Controller.OR.Ifetch |       17961     35.61%     35.61% |        3255      6.45%     42.06% |       26599     52.73%     94.79% |        2626      5.21%    100.00%
system.ruby.L1Cache_Controller.OR.Ifetch::total        50441                      
system.ruby.L1Cache_Controller.OR.Store  |           7     14.58%     14.58% |          15     31.25%     45.83% |          20     41.67%     87.50% |           6     12.50%    100.00%
system.ruby.L1Cache_Controller.OR.Store::total           48                      
system.ruby.L1Cache_Controller.MR.Load   |        1032      0.15%      0.15% |      243816     34.98%     35.13% |        7064      1.01%     36.14% |      445073     63.86%    100.00%
system.ruby.L1Cache_Controller.MR.Load::total       696985                      
system.ruby.L1Cache_Controller.MR.Ifetch |        5025     16.56%     16.56% |        6595     21.74%     38.30% |       18558     61.17%     99.47% |         161      0.53%    100.00%
system.ruby.L1Cache_Controller.MR.Ifetch::total        30339                      
system.ruby.L1Cache_Controller.MR.Store  |        1362     11.04%     11.04% |        3411     27.65%     38.69% |        1743     14.13%     52.81% |        5822     47.19%    100.00%
system.ruby.L1Cache_Controller.MR.Store::total        12338                      
system.ruby.L1Cache_Controller.MMR.Load  |        5292      1.12%      1.12% |      135149     28.68%     29.81% |       89872     19.07%     48.88% |      240866     51.12%    100.00%
system.ruby.L1Cache_Controller.MMR.Load::total       471179                      
system.ruby.L1Cache_Controller.MMR.Store |       14302     15.02%     15.02% |       13974     14.68%     29.70% |       47383     49.77%     79.47% |       19549     20.53%    100.00%
system.ruby.L1Cache_Controller.MMR.Store::total        95208                      
system.ruby.L1Cache_Controller.IM.Ack    |       19438      0.90%      0.90% |      759259     35.04%     35.94% |      231062     10.66%     46.60% |     1157109     53.40%    100.00%
system.ruby.L1Cache_Controller.IM.Ack::total      2166868                      
system.ruby.L1Cache_Controller.IM.Data   |        2512     13.88%     13.88% |        5842     32.28%     46.16% |        5354     29.58%     75.74% |        4390     24.26%    100.00%
system.ruby.L1Cache_Controller.IM.Data::total        18098                      
system.ruby.L1Cache_Controller.IM.Exclusive_Data |        8048      1.06%      1.06% |      257909     33.89%     34.95% |       85786     11.27%     46.22% |      409202     53.78%    100.00%
system.ruby.L1Cache_Controller.IM.Exclusive_Data::total       760945                      
system.ruby.L1Cache_Controller.SM.Other_GETX |           0      0.00%      0.00% |           0      0.00%      0.00% |           3    100.00%    100.00% |           0      0.00%    100.00%
system.ruby.L1Cache_Controller.SM.Other_GETX::total            3                      
system.ruby.L1Cache_Controller.SM.Ack    |        4905     12.24%     12.24% |       10120     25.26%     37.51% |       13173     32.88%     70.39% |       11863     29.61%    100.00%
system.ruby.L1Cache_Controller.SM.Ack::total        40061                      
system.ruby.L1Cache_Controller.SM.Data   |        4454     11.14%     11.14% |       11211     28.05%     39.19% |       12571     31.45%     70.64% |       11735     29.36%    100.00%
system.ruby.L1Cache_Controller.SM.Data::total        39971                      
system.ruby.L1Cache_Controller.OM.Ack    |         105      4.64%      4.64% |         588     25.99%     30.64% |        1119     49.47%     80.11% |         450     19.89%    100.00%
system.ruby.L1Cache_Controller.OM.Ack::total         2262                      
system.ruby.L1Cache_Controller.OM.All_acks_no_sharers |          35      4.64%      4.64% |         196     25.99%     30.64% |         373     49.47%     80.11% |         150     19.89%    100.00%
system.ruby.L1Cache_Controller.OM.All_acks_no_sharers::total          754                      
system.ruby.L1Cache_Controller.ISM.Ack   |        6554     10.56%     10.56% |       18799     30.28%     40.84% |       20544     33.09%     73.93% |       16184     26.07%    100.00%
system.ruby.L1Cache_Controller.ISM.Ack::total        62081                      
system.ruby.L1Cache_Controller.ISM.All_acks_no_sharers |        6966     12.00%     12.00% |       17053     29.37%     41.36% |       17925     30.87%     72.23% |       16125     27.77%    100.00%
system.ruby.L1Cache_Controller.ISM.All_acks_no_sharers::total        58069                      
system.ruby.L1Cache_Controller.M_W.Load  |           0      0.00%      0.00% |           5     55.56%     55.56% |           4     44.44%    100.00% |           0      0.00%    100.00%
system.ruby.L1Cache_Controller.M_W.Load::total            9                      
system.ruby.L1Cache_Controller.M_W.Ack   |        9035      8.48%      8.48% |       32146     30.18%     38.66% |       49539     46.50%     85.16% |       15807     14.84%    100.00%
system.ruby.L1Cache_Controller.M_W.Ack::total       106527                      
system.ruby.L1Cache_Controller.M_W.All_acks_no_sharers |       44777      3.09%      3.09% |      412485     28.48%     31.57% |      194513     13.43%     45.00% |      796743     55.00%    100.00%
system.ruby.L1Cache_Controller.M_W.All_acks_no_sharers::total      1448518                      
system.ruby.L1Cache_Controller.MM_W.Store |         501      4.93%      4.93% |         727      7.16%     12.09% |        8411     82.79%     94.87% |         521      5.13%    100.00%
system.ruby.L1Cache_Controller.MM_W.Store::total        10160                      
system.ruby.L1Cache_Controller.MM_W.Ack  |        3641      5.32%      5.32% |       10672     15.58%     20.90% |       17448     25.48%     46.38% |       36723     53.62%    100.00%
system.ruby.L1Cache_Controller.MM_W.Ack::total        68484                      
system.ruby.L1Cache_Controller.MM_W.All_acks_no_sharers |        8048      1.06%      1.06% |      257909     33.89%     34.95% |       85786     11.27%     46.22% |      409202     53.78%    100.00%
system.ruby.L1Cache_Controller.MM_W.All_acks_no_sharers::total       760945                      
system.ruby.L1Cache_Controller.IS.Other_GETS |           0      0.00%      0.00% |           2     66.67%     66.67% |           0      0.00%     66.67% |           1     33.33%    100.00%
system.ruby.L1Cache_Controller.IS.Other_GETS::total            3                      
system.ruby.L1Cache_Controller.IS.Ack    |      131685      3.08%      3.08% |     1197956     28.04%     31.12% |      540231     12.65%     43.77% |     2402281     56.23%    100.00%
system.ruby.L1Cache_Controller.IS.Ack::total      4272153                      
system.ruby.L1Cache_Controller.IS.Shared_Ack |        7354     15.90%     15.90% |       15999     34.59%     50.49% |       11680     25.25%     75.74% |       11220     24.26%    100.00%
system.ruby.L1Cache_Controller.IS.Shared_Ack::total        46253                      
system.ruby.L1Cache_Controller.IS.Data   |        2254     14.45%     14.45% |        3726     23.88%     38.32% |        5722     36.67%     74.99% |        3902     25.01%    100.00%
system.ruby.L1Cache_Controller.IS.Data::total        15604                      
system.ruby.L1Cache_Controller.IS.Shared_Data |       14561     10.46%     10.46% |       28108     20.20%     30.66% |       50596     36.35%     67.01% |       45910     32.99%    100.00%
system.ruby.L1Cache_Controller.IS.Shared_Data::total       139175                      
system.ruby.L1Cache_Controller.IS.Exclusive_Data |       44777      3.09%      3.09% |      412485     28.48%     31.57% |      194513     13.43%     45.00% |      796743     55.00%    100.00%
system.ruby.L1Cache_Controller.IS.Exclusive_Data::total      1448518                      
system.ruby.L1Cache_Controller.SS.Load   |           2      4.26%      4.26% |          16     34.04%     38.30% |          24     51.06%     89.36% |           5     10.64%    100.00%
system.ruby.L1Cache_Controller.SS.Load::total           47                      
system.ruby.L1Cache_Controller.SS.Ifetch |         705     11.75%     11.75% |        2056     34.28%     46.03% |        1524     25.41%     71.44% |        1713     28.56%    100.00%
system.ruby.L1Cache_Controller.SS.Ifetch::total         5998                      
system.ruby.L1Cache_Controller.SS.Ack    |        9771      7.82%      7.82% |       22243     17.81%     25.63% |       53841     43.11%     68.74% |       39041     31.26%    100.00%
system.ruby.L1Cache_Controller.SS.Ack::total       124896                      
system.ruby.L1Cache_Controller.SS.Shared_Ack |        3773     16.02%     16.02% |        9753     41.41%     57.43% |        3364     14.28%     71.71% |        6662     28.29%    100.00%
system.ruby.L1Cache_Controller.SS.Shared_Ack::total        23552                      
system.ruby.L1Cache_Controller.SS.All_acks |       16765     10.89%     10.89% |       31702     20.60%     31.50% |       55623     36.15%     67.64% |       49792     32.36%    100.00%
system.ruby.L1Cache_Controller.SS.All_acks::total       153882                      
system.ruby.L1Cache_Controller.SS.All_acks_no_sharers |          50      5.57%      5.57% |         132     14.72%     20.29% |         695     77.48%     97.77% |          20      2.23%    100.00%
system.ruby.L1Cache_Controller.SS.All_acks_no_sharers::total          897                      
system.ruby.L1Cache_Controller.OI.Load   |           5     31.25%     31.25% |           0      0.00%     31.25% |          11     68.75%    100.00% |           0      0.00%    100.00%
system.ruby.L1Cache_Controller.OI.Load::total           16                      
system.ruby.L1Cache_Controller.OI.Ifetch |           2     66.67%     66.67% |           0      0.00%     66.67% |           1     33.33%    100.00% |           0      0.00%    100.00%
system.ruby.L1Cache_Controller.OI.Ifetch::total            3                      
system.ruby.L1Cache_Controller.OI.Writeback_Ack |        2215     22.33%     22.33% |         560      5.65%     27.98% |        4184     42.18%     70.16% |        2960     29.84%    100.00%
system.ruby.L1Cache_Controller.OI.Writeback_Ack::total         9919                      
system.ruby.L1Cache_Controller.MI.Load   |          17      0.61%      0.61% |         785     28.24%     28.85% |          53      1.91%     30.76% |        1925     69.24%    100.00%
system.ruby.L1Cache_Controller.MI.Load::total         2780                      
system.ruby.L1Cache_Controller.MI.Store  |          24      8.70%      8.70% |          53     19.20%     27.90% |         109     39.49%     67.39% |          90     32.61%    100.00%
system.ruby.L1Cache_Controller.MI.Store::total          276                      
system.ruby.L1Cache_Controller.MI.Writeback_Ack |        4890      0.25%      0.25% |      587396     29.91%     30.16% |      225077     11.46%     41.63% |     1146252     58.37%    100.00%
system.ruby.L1Cache_Controller.MI.Writeback_Ack::total      1963615                      
system.ruby.L1Cache_Controller.ST.Load   |           0      0.00%      0.00% |           0      0.00%      0.00% |           0      0.00%      0.00% |           1    100.00%    100.00%
system.ruby.L1Cache_Controller.ST.Load::total            1                      
system.ruby.L1Cache_Controller.ST.Complete_L2_to_L1 |       41936     14.93%     14.93% |       80745     28.75%     43.68% |       86975     30.97%     74.65% |       71183     25.35%    100.00%
system.ruby.L1Cache_Controller.ST.Complete_L2_to_L1::total       280839                      
system.ruby.L1Cache_Controller.OT.Complete_L2_to_L1 |       22209     33.96%     33.96% |        4758      7.28%     41.24% |       33992     51.99%     93.23% |        4429      6.77%    100.00%
system.ruby.L1Cache_Controller.OT.Complete_L2_to_L1::total        65388                      
system.ruby.L1Cache_Controller.MT.Load   |           0      0.00%      0.00% |          43     28.10%     28.10% |           0      0.00%     28.10% |         110     71.90%    100.00%
system.ruby.L1Cache_Controller.MT.Load::total          153                      
system.ruby.L1Cache_Controller.MT.Store  |           0      0.00%      0.00% |           2     18.18%     18.18% |           0      0.00%     18.18% |           9     81.82%    100.00%
system.ruby.L1Cache_Controller.MT.Store::total           11                      
system.ruby.L1Cache_Controller.MT.Complete_L2_to_L1 |        7419      1.00%      1.00% |      253822     34.32%     35.32% |       27365      3.70%     39.02% |      451056     60.98%    100.00%
system.ruby.L1Cache_Controller.MT.Complete_L2_to_L1::total       739662                      
system.ruby.L1Cache_Controller.MMT.Load  |           0      0.00%      0.00% |         245     41.88%     41.88% |           0      0.00%     41.88% |         340     58.12%    100.00%
system.ruby.L1Cache_Controller.MMT.Load::total          585                      
system.ruby.L1Cache_Controller.MMT.Store |           0      0.00%      0.00% |          73     19.31%     19.31% |           0      0.00%     19.31% |         305     80.69%    100.00%
system.ruby.L1Cache_Controller.MMT.Store::total          378                      
system.ruby.L1Cache_Controller.MMT.Complete_L2_to_L1 |       19594      3.46%      3.46% |      149123     26.33%     29.79% |      137255     24.23%     54.02% |      260415     45.98%    100.00%
system.ruby.L1Cache_Controller.MMT.Complete_L2_to_L1::total       566387                      

---------- End Simulation Statistics   ----------
