
---------- Begin Simulation Statistics ----------
sim_seconds                                  3.928920                       # Number of seconds simulated
sim_ticks                                3928920169000                       # Number of ticks simulated
final_tick                               56370101424501                       # Number of ticks from beginning of simulation (restored from checkpoints and never reset)
sim_freq                                 1000000000000                       # Frequency of simulated ticks
host_inst_rate                                 136094                       # Simulator instruction rate (inst/s)
host_op_rate                                   231805                       # Simulator op (including micro ops) rate (op/s)
host_tick_rate                              264476060                       # Simulator tick rate (ticks/s)
host_mem_usage                                1879280                       # Number of bytes of host memory used
host_seconds                                 14855.49                       # Real time elapsed on the host
sim_insts                                  2021735706                       # Number of instructions simulated
sim_ops                                    3443569380                       # Number of ops (including micro ops) simulated
system.voltage_domain.voltage                       1                       # Voltage in Volts
system.clk_domain.clock                          1000                       # Clock period in ticks
system.mem_ctrls.bytes_read::ruby.dir_cntrl0      1652352                       # Number of bytes read from this memory
system.mem_ctrls.bytes_read::total            1652352                       # Number of bytes read from this memory
system.mem_ctrls.bytes_written::ruby.dir_cntrl0       791488                       # Number of bytes written to this memory
system.mem_ctrls.bytes_written::total          791488                       # Number of bytes written to this memory
system.mem_ctrls.num_reads::ruby.dir_cntrl0        25818                       # Number of read requests responded to by this memory
system.mem_ctrls.num_reads::total               25818                       # Number of read requests responded to by this memory
system.mem_ctrls.num_writes::ruby.dir_cntrl0        12367                       # Number of write requests responded to by this memory
system.mem_ctrls.num_writes::total              12367                       # Number of write requests responded to by this memory
system.mem_ctrls.bw_read::ruby.dir_cntrl0       420561                       # Total read bandwidth from this memory (bytes/s)
system.mem_ctrls.bw_read::total                420561                       # Total read bandwidth from this memory (bytes/s)
system.mem_ctrls.bw_write::ruby.dir_cntrl0       201452                       # Write bandwidth from this memory (bytes/s)
system.mem_ctrls.bw_write::total               201452                       # Write bandwidth from this memory (bytes/s)
system.mem_ctrls.bw_total::ruby.dir_cntrl0       622013                       # Total bandwidth to/from this memory (bytes/s)
system.mem_ctrls.bw_total::total               622013                       # Total bandwidth to/from this memory (bytes/s)
system.mem_ctrls.readReqs                       25818                       # Number of read requests accepted
system.mem_ctrls.writeReqs                      12367                       # Number of write requests accepted
system.mem_ctrls.readBursts                     25818                       # Number of DRAM read bursts, including those serviced by the write queue
system.mem_ctrls.writeBursts                    12367                       # Number of DRAM write bursts, including those merged in the write queue
system.mem_ctrls.bytesReadDRAM                1543744                       # Total number of bytes read from DRAM
system.mem_ctrls.bytesReadWrQ                  108608                       # Total number of bytes read from write queue
system.mem_ctrls.bytesWritten                  731520                       # Total number of bytes written to DRAM
system.mem_ctrls.bytesReadSys                 1652352                       # Total read bytes from the system interface side
system.mem_ctrls.bytesWrittenSys               791488                       # Total written bytes from the system interface side
system.mem_ctrls.servicedByWrQ                   1697                       # Number of DRAM read bursts serviced by the write queue
system.mem_ctrls.mergedWrBursts                   934                       # Number of DRAM write bursts merged with an existing one
system.mem_ctrls.neitherReadNorWriteReqs            0                       # Number of requests that are neither read nor write
system.mem_ctrls.perBankRdBursts::0              1950                       # Per bank write bursts
system.mem_ctrls.perBankRdBursts::1              1333                       # Per bank write bursts
system.mem_ctrls.perBankRdBursts::2              1162                       # Per bank write bursts
system.mem_ctrls.perBankRdBursts::3              1104                       # Per bank write bursts
system.mem_ctrls.perBankRdBursts::4              1333                       # Per bank write bursts
system.mem_ctrls.perBankRdBursts::5              1595                       # Per bank write bursts
system.mem_ctrls.perBankRdBursts::6              2203                       # Per bank write bursts
system.mem_ctrls.perBankRdBursts::7              2270                       # Per bank write bursts
system.mem_ctrls.perBankRdBursts::8              1408                       # Per bank write bursts
system.mem_ctrls.perBankRdBursts::9              1029                       # Per bank write bursts
system.mem_ctrls.perBankRdBursts::10             1337                       # Per bank write bursts
system.mem_ctrls.perBankRdBursts::11             1142                       # Per bank write bursts
system.mem_ctrls.perBankRdBursts::12             1203                       # Per bank write bursts
system.mem_ctrls.perBankRdBursts::13             1743                       # Per bank write bursts
system.mem_ctrls.perBankRdBursts::14             1892                       # Per bank write bursts
system.mem_ctrls.perBankRdBursts::15             1417                       # Per bank write bursts
system.mem_ctrls.perBankWrBursts::0               954                       # Per bank write bursts
system.mem_ctrls.perBankWrBursts::1               763                       # Per bank write bursts
system.mem_ctrls.perBankWrBursts::2               647                       # Per bank write bursts
system.mem_ctrls.perBankWrBursts::3               563                       # Per bank write bursts
system.mem_ctrls.perBankWrBursts::4               848                       # Per bank write bursts
system.mem_ctrls.perBankWrBursts::5               810                       # Per bank write bursts
system.mem_ctrls.perBankWrBursts::6               990                       # Per bank write bursts
system.mem_ctrls.perBankWrBursts::7              1103                       # Per bank write bursts
system.mem_ctrls.perBankWrBursts::8               593                       # Per bank write bursts
system.mem_ctrls.perBankWrBursts::9               357                       # Per bank write bursts
system.mem_ctrls.perBankWrBursts::10              513                       # Per bank write bursts
system.mem_ctrls.perBankWrBursts::11              331                       # Per bank write bursts
system.mem_ctrls.perBankWrBursts::12              563                       # Per bank write bursts
system.mem_ctrls.perBankWrBursts::13              735                       # Per bank write bursts
system.mem_ctrls.perBankWrBursts::14             1093                       # Per bank write bursts
system.mem_ctrls.perBankWrBursts::15              567                       # Per bank write bursts
system.mem_ctrls.numRdRetry                         0                       # Number of times read queue was full causing retry
system.mem_ctrls.numWrRetry                         0                       # Number of times write queue was full causing retry
system.mem_ctrls.totGap                  3928920106000                       # Total gap between requests
system.mem_ctrls.readPktSize::0                     0                       # Read request sizes (log2)
system.mem_ctrls.readPktSize::1                     0                       # Read request sizes (log2)
system.mem_ctrls.readPktSize::2                     0                       # Read request sizes (log2)
system.mem_ctrls.readPktSize::3                     0                       # Read request sizes (log2)
system.mem_ctrls.readPktSize::4                     0                       # Read request sizes (log2)
system.mem_ctrls.readPktSize::5                     0                       # Read request sizes (log2)
system.mem_ctrls.readPktSize::6                 25818                       # Read request sizes (log2)
system.mem_ctrls.writePktSize::0                    0                       # Write request sizes (log2)
system.mem_ctrls.writePktSize::1                    0                       # Write request sizes (log2)
system.mem_ctrls.writePktSize::2                    0                       # Write request sizes (log2)
system.mem_ctrls.writePktSize::3                    0                       # Write request sizes (log2)
system.mem_ctrls.writePktSize::4                    0                       # Write request sizes (log2)
system.mem_ctrls.writePktSize::5                    0                       # Write request sizes (log2)
system.mem_ctrls.writePktSize::6                12367                       # Write request sizes (log2)
system.mem_ctrls.rdQLenPdf::0                   23929                       # What read queue length does an incoming req see
system.mem_ctrls.rdQLenPdf::1                     188                       # What read queue length does an incoming req see
system.mem_ctrls.rdQLenPdf::2                       4                       # What read queue length does an incoming req see
system.mem_ctrls.rdQLenPdf::3                       0                       # What read queue length does an incoming req see
system.mem_ctrls.rdQLenPdf::4                       0                       # What read queue length does an incoming req see
system.mem_ctrls.rdQLenPdf::5                       0                       # What read queue length does an incoming req see
system.mem_ctrls.rdQLenPdf::6                       0                       # What read queue length does an incoming req see
system.mem_ctrls.rdQLenPdf::7                       0                       # What read queue length does an incoming req see
system.mem_ctrls.rdQLenPdf::8                       0                       # What read queue length does an incoming req see
system.mem_ctrls.rdQLenPdf::9                       0                       # What read queue length does an incoming req see
system.mem_ctrls.rdQLenPdf::10                      0                       # What read queue length does an incoming req see
system.mem_ctrls.rdQLenPdf::11                      0                       # What read queue length does an incoming req see
system.mem_ctrls.rdQLenPdf::12                      0                       # What read queue length does an incoming req see
system.mem_ctrls.rdQLenPdf::13                      0                       # What read queue length does an incoming req see
system.mem_ctrls.rdQLenPdf::14                      0                       # What read queue length does an incoming req see
system.mem_ctrls.rdQLenPdf::15                      0                       # What read queue length does an incoming req see
system.mem_ctrls.rdQLenPdf::16                      0                       # What read queue length does an incoming req see
system.mem_ctrls.rdQLenPdf::17                      0                       # What read queue length does an incoming req see
system.mem_ctrls.rdQLenPdf::18                      0                       # What read queue length does an incoming req see
system.mem_ctrls.rdQLenPdf::19                      0                       # What read queue length does an incoming req see
system.mem_ctrls.rdQLenPdf::20                      0                       # What read queue length does an incoming req see
system.mem_ctrls.rdQLenPdf::21                      0                       # What read queue length does an incoming req see
system.mem_ctrls.rdQLenPdf::22                      0                       # What read queue length does an incoming req see
system.mem_ctrls.rdQLenPdf::23                      0                       # What read queue length does an incoming req see
system.mem_ctrls.rdQLenPdf::24                      0                       # What read queue length does an incoming req see
system.mem_ctrls.rdQLenPdf::25                      0                       # What read queue length does an incoming req see
system.mem_ctrls.rdQLenPdf::26                      0                       # What read queue length does an incoming req see
system.mem_ctrls.rdQLenPdf::27                      0                       # What read queue length does an incoming req see
system.mem_ctrls.rdQLenPdf::28                      0                       # What read queue length does an incoming req see
system.mem_ctrls.rdQLenPdf::29                      0                       # What read queue length does an incoming req see
system.mem_ctrls.rdQLenPdf::30                      0                       # What read queue length does an incoming req see
system.mem_ctrls.rdQLenPdf::31                      0                       # What read queue length does an incoming req see
system.mem_ctrls.wrQLenPdf::0                       0                       # What write queue length does an incoming req see
system.mem_ctrls.wrQLenPdf::1                       0                       # What write queue length does an incoming req see
system.mem_ctrls.wrQLenPdf::2                       0                       # What write queue length does an incoming req see
system.mem_ctrls.wrQLenPdf::3                       0                       # What write queue length does an incoming req see
system.mem_ctrls.wrQLenPdf::4                       0                       # What write queue length does an incoming req see
system.mem_ctrls.wrQLenPdf::5                       0                       # What write queue length does an incoming req see
system.mem_ctrls.wrQLenPdf::6                       0                       # What write queue length does an incoming req see
system.mem_ctrls.wrQLenPdf::7                       0                       # What write queue length does an incoming req see
system.mem_ctrls.wrQLenPdf::8                       0                       # What write queue length does an incoming req see
system.mem_ctrls.wrQLenPdf::9                       0                       # What write queue length does an incoming req see
system.mem_ctrls.wrQLenPdf::10                      0                       # What write queue length does an incoming req see
system.mem_ctrls.wrQLenPdf::11                      0                       # What write queue length does an incoming req see
system.mem_ctrls.wrQLenPdf::12                      0                       # What write queue length does an incoming req see
system.mem_ctrls.wrQLenPdf::13                      0                       # What write queue length does an incoming req see
system.mem_ctrls.wrQLenPdf::14                      0                       # What write queue length does an incoming req see
system.mem_ctrls.wrQLenPdf::15                    141                       # What write queue length does an incoming req see
system.mem_ctrls.wrQLenPdf::16                    185                       # What write queue length does an incoming req see
system.mem_ctrls.wrQLenPdf::17                    656                       # What write queue length does an incoming req see
system.mem_ctrls.wrQLenPdf::18                    697                       # What write queue length does an incoming req see
system.mem_ctrls.wrQLenPdf::19                    683                       # What write queue length does an incoming req see
system.mem_ctrls.wrQLenPdf::20                    737                       # What write queue length does an incoming req see
system.mem_ctrls.wrQLenPdf::21                    725                       # What write queue length does an incoming req see
system.mem_ctrls.wrQLenPdf::22                    682                       # What write queue length does an incoming req see
system.mem_ctrls.wrQLenPdf::23                    745                       # What write queue length does an incoming req see
system.mem_ctrls.wrQLenPdf::24                    717                       # What write queue length does an incoming req see
system.mem_ctrls.wrQLenPdf::25                    686                       # What write queue length does an incoming req see
system.mem_ctrls.wrQLenPdf::26                    696                       # What write queue length does an incoming req see
system.mem_ctrls.wrQLenPdf::27                    687                       # What write queue length does an incoming req see
system.mem_ctrls.wrQLenPdf::28                    692                       # What write queue length does an incoming req see
system.mem_ctrls.wrQLenPdf::29                    674                       # What write queue length does an incoming req see
system.mem_ctrls.wrQLenPdf::30                    671                       # What write queue length does an incoming req see
system.mem_ctrls.wrQLenPdf::31                    667                       # What write queue length does an incoming req see
system.mem_ctrls.wrQLenPdf::32                    659                       # What write queue length does an incoming req see
system.mem_ctrls.wrQLenPdf::33                      8                       # What write queue length does an incoming req see
system.mem_ctrls.wrQLenPdf::34                      6                       # What write queue length does an incoming req see
system.mem_ctrls.wrQLenPdf::35                      3                       # What write queue length does an incoming req see
system.mem_ctrls.wrQLenPdf::36                      4                       # What write queue length does an incoming req see
system.mem_ctrls.wrQLenPdf::37                      4                       # What write queue length does an incoming req see
system.mem_ctrls.wrQLenPdf::38                      3                       # What write queue length does an incoming req see
system.mem_ctrls.wrQLenPdf::39                      2                       # What write queue length does an incoming req see
system.mem_ctrls.wrQLenPdf::40                      1                       # What write queue length does an incoming req see
system.mem_ctrls.wrQLenPdf::41                      1                       # What write queue length does an incoming req see
system.mem_ctrls.wrQLenPdf::42                      1                       # What write queue length does an incoming req see
system.mem_ctrls.wrQLenPdf::43                      0                       # What write queue length does an incoming req see
system.mem_ctrls.wrQLenPdf::44                      0                       # What write queue length does an incoming req see
system.mem_ctrls.wrQLenPdf::45                      0                       # What write queue length does an incoming req see
system.mem_ctrls.wrQLenPdf::46                      0                       # What write queue length does an incoming req see
system.mem_ctrls.wrQLenPdf::47                      0                       # What write queue length does an incoming req see
system.mem_ctrls.wrQLenPdf::48                      0                       # What write queue length does an incoming req see
system.mem_ctrls.wrQLenPdf::49                      0                       # What write queue length does an incoming req see
system.mem_ctrls.wrQLenPdf::50                      0                       # What write queue length does an incoming req see
system.mem_ctrls.wrQLenPdf::51                      0                       # What write queue length does an incoming req see
system.mem_ctrls.wrQLenPdf::52                      0                       # What write queue length does an incoming req see
system.mem_ctrls.wrQLenPdf::53                      0                       # What write queue length does an incoming req see
system.mem_ctrls.wrQLenPdf::54                      0                       # What write queue length does an incoming req see
system.mem_ctrls.wrQLenPdf::55                      0                       # What write queue length does an incoming req see
system.mem_ctrls.wrQLenPdf::56                      0                       # What write queue length does an incoming req see
system.mem_ctrls.wrQLenPdf::57                      0                       # What write queue length does an incoming req see
system.mem_ctrls.wrQLenPdf::58                      0                       # What write queue length does an incoming req see
system.mem_ctrls.wrQLenPdf::59                      0                       # What write queue length does an incoming req see
system.mem_ctrls.wrQLenPdf::60                      0                       # What write queue length does an incoming req see
system.mem_ctrls.wrQLenPdf::61                      0                       # What write queue length does an incoming req see
system.mem_ctrls.wrQLenPdf::62                      0                       # What write queue length does an incoming req see
system.mem_ctrls.wrQLenPdf::63                      0                       # What write queue length does an incoming req see
system.mem_ctrls.bytesPerActivate::samples        12153                       # Bytes accessed per row activation
system.mem_ctrls.bytesPerActivate::mean    187.213034                       # Bytes accessed per row activation
system.mem_ctrls.bytesPerActivate::gmean   114.850484                       # Bytes accessed per row activation
system.mem_ctrls.bytesPerActivate::stdev   249.373764                       # Bytes accessed per row activation
system.mem_ctrls.bytesPerActivate::0-127         7135     58.71%     58.71% # Bytes accessed per row activation
system.mem_ctrls.bytesPerActivate::128-255         2707     22.27%     80.98% # Bytes accessed per row activation
system.mem_ctrls.bytesPerActivate::256-383          675      5.55%     86.54% # Bytes accessed per row activation
system.mem_ctrls.bytesPerActivate::384-511          377      3.10%     89.64% # Bytes accessed per row activation
system.mem_ctrls.bytesPerActivate::512-639          242      1.99%     91.63% # Bytes accessed per row activation
system.mem_ctrls.bytesPerActivate::640-767          150      1.23%     92.87% # Bytes accessed per row activation
system.mem_ctrls.bytesPerActivate::768-895          125      1.03%     93.89% # Bytes accessed per row activation
system.mem_ctrls.bytesPerActivate::896-1023          105      0.86%     94.76% # Bytes accessed per row activation
system.mem_ctrls.bytesPerActivate::1024-1151          637      5.24%    100.00% # Bytes accessed per row activation
system.mem_ctrls.bytesPerActivate::total        12153                       # Bytes accessed per row activation
system.mem_ctrls.rdPerTurnAround::samples          658                       # Reads before turning the bus around for writes
system.mem_ctrls.rdPerTurnAround::mean      37.091185                       # Reads before turning the bus around for writes
system.mem_ctrls.rdPerTurnAround::stdev     39.221001                       # Reads before turning the bus around for writes
system.mem_ctrls.rdPerTurnAround::0-15            128     19.45%     19.45% # Reads before turning the bus around for writes
system.mem_ctrls.rdPerTurnAround::16-31           249     37.84%     57.29% # Reads before turning the bus around for writes
system.mem_ctrls.rdPerTurnAround::32-47           146     22.19%     79.48% # Reads before turning the bus around for writes
system.mem_ctrls.rdPerTurnAround::48-63            51      7.75%     87.23% # Reads before turning the bus around for writes
system.mem_ctrls.rdPerTurnAround::64-79            23      3.50%     90.73% # Reads before turning the bus around for writes
system.mem_ctrls.rdPerTurnAround::80-95            17      2.58%     93.31% # Reads before turning the bus around for writes
system.mem_ctrls.rdPerTurnAround::96-111           13      1.98%     95.29% # Reads before turning the bus around for writes
system.mem_ctrls.rdPerTurnAround::112-127            8      1.22%     96.50% # Reads before turning the bus around for writes
system.mem_ctrls.rdPerTurnAround::128-143            8      1.22%     97.72% # Reads before turning the bus around for writes
system.mem_ctrls.rdPerTurnAround::144-159            2      0.30%     98.02% # Reads before turning the bus around for writes
system.mem_ctrls.rdPerTurnAround::160-175            1      0.15%     98.18% # Reads before turning the bus around for writes
system.mem_ctrls.rdPerTurnAround::176-191            2      0.30%     98.48% # Reads before turning the bus around for writes
system.mem_ctrls.rdPerTurnAround::192-207            3      0.46%     98.94% # Reads before turning the bus around for writes
system.mem_ctrls.rdPerTurnAround::208-223            2      0.30%     99.24% # Reads before turning the bus around for writes
system.mem_ctrls.rdPerTurnAround::224-239            1      0.15%     99.39% # Reads before turning the bus around for writes
system.mem_ctrls.rdPerTurnAround::256-271            1      0.15%     99.54% # Reads before turning the bus around for writes
system.mem_ctrls.rdPerTurnAround::272-287            1      0.15%     99.70% # Reads before turning the bus around for writes
system.mem_ctrls.rdPerTurnAround::288-303            1      0.15%     99.85% # Reads before turning the bus around for writes
system.mem_ctrls.rdPerTurnAround::320-335            1      0.15%    100.00% # Reads before turning the bus around for writes
system.mem_ctrls.rdPerTurnAround::total           658                       # Reads before turning the bus around for writes
system.mem_ctrls.wrPerTurnAround::samples          658                       # Writes before turning the bus around for reads
system.mem_ctrls.wrPerTurnAround::mean      17.370821                       # Writes before turning the bus around for reads
system.mem_ctrls.wrPerTurnAround::gmean     17.155505                       # Writes before turning the bus around for reads
system.mem_ctrls.wrPerTurnAround::stdev      3.093549                       # Writes before turning the bus around for reads
system.mem_ctrls.wrPerTurnAround::16              505     76.75%     76.75% # Writes before turning the bus around for reads
system.mem_ctrls.wrPerTurnAround::17                4      0.61%     77.36% # Writes before turning the bus around for reads
system.mem_ctrls.wrPerTurnAround::18               45      6.84%     84.19% # Writes before turning the bus around for reads
system.mem_ctrls.wrPerTurnAround::19                1      0.15%     84.35% # Writes before turning the bus around for reads
system.mem_ctrls.wrPerTurnAround::20                1      0.15%     84.50% # Writes before turning the bus around for reads
system.mem_ctrls.wrPerTurnAround::21               33      5.02%     89.51% # Writes before turning the bus around for reads
system.mem_ctrls.wrPerTurnAround::22                7      1.06%     90.58% # Writes before turning the bus around for reads
system.mem_ctrls.wrPerTurnAround::23                5      0.76%     91.34% # Writes before turning the bus around for reads
system.mem_ctrls.wrPerTurnAround::24               34      5.17%     96.50% # Writes before turning the bus around for reads
system.mem_ctrls.wrPerTurnAround::25                2      0.30%     96.81% # Writes before turning the bus around for reads
system.mem_ctrls.wrPerTurnAround::27                2      0.30%     97.11% # Writes before turning the bus around for reads
system.mem_ctrls.wrPerTurnAround::28               17      2.58%     99.70% # Writes before turning the bus around for reads
system.mem_ctrls.wrPerTurnAround::33                1      0.15%     99.85% # Writes before turning the bus around for reads
system.mem_ctrls.wrPerTurnAround::42                1      0.15%    100.00% # Writes before turning the bus around for reads
system.mem_ctrls.wrPerTurnAround::total           658                       # Writes before turning the bus around for reads
system.mem_ctrls.totQLat                    294412497                       # Total ticks spent queuing
system.mem_ctrls.totMemAccLat               746681247                       # Total ticks spent from burst creation until serviced by the DRAM
system.mem_ctrls.totBusLat                  120605000                       # Total ticks spent in databus transfers
system.mem_ctrls.avgQLat                     12205.65                       # Average queueing delay per DRAM burst
system.mem_ctrls.avgBusLat                    5000.00                       # Average bus latency per DRAM burst
system.mem_ctrls.avgMemAccLat                30955.65                       # Average memory access latency per DRAM burst
system.mem_ctrls.avgRdBW                         0.39                       # Average DRAM read bandwidth in MiByte/s
system.mem_ctrls.avgWrBW                         0.19                       # Average achieved write bandwidth in MiByte/s
system.mem_ctrls.avgRdBWSys                      0.42                       # Average system read bandwidth in MiByte/s
system.mem_ctrls.avgWrBWSys                      0.20                       # Average system write bandwidth in MiByte/s
system.mem_ctrls.peakBW                      12800.00                       # Theoretical peak bandwidth in MiByte/s
system.mem_ctrls.busUtil                         0.00                       # Data bus utilization in percentage
system.mem_ctrls.busUtilRead                     0.00                       # Data bus utilization in percentage for reads
system.mem_ctrls.busUtilWrite                    0.00                       # Data bus utilization in percentage for writes
system.mem_ctrls.avgRdQLen                       1.00                       # Average read queue length when enqueuing
system.mem_ctrls.avgWrQLen                      25.11                       # Average write queue length when enqueuing
system.mem_ctrls.readRowHits                    16319                       # Number of row buffer hits during reads
system.mem_ctrls.writeRowHits                    7078                       # Number of row buffer hits during writes
system.mem_ctrls.readRowHitRate                 67.65                       # Row buffer hit rate for reads
system.mem_ctrls.writeRowHitRate                61.91                       # Row buffer hit rate for writes
system.mem_ctrls.avgGap                  102891714.18                       # Average gap between requests
system.mem_ctrls.pageHitRate                    65.81                       # Row buffer hit rate, read and write combined
system.mem_ctrls_0.actEnergy                 64887480                       # Energy for activate commands per rank (pJ)
system.mem_ctrls_0.preEnergy                 35404875                       # Energy for precharge commands per rank (pJ)
system.mem_ctrls_0.readEnergy               158308800                       # Energy for read commands per rank (pJ)
system.mem_ctrls_0.writeEnergy               43889040                       # Energy for write commands per rank (pJ)
system.mem_ctrls_0.refreshEnergy         256869078960                       # Energy for refresh commands per rank (pJ)
system.mem_ctrls_0.actBackEnergy          91302163380                       # Energy for active background per rank (pJ)
system.mem_ctrls_0.preBackEnergy         2279569418250                       # Energy for precharge background per rank (pJ)
system.mem_ctrls_0.totalEnergy           2628043150785                       # Total energy per rank (pJ)
system.mem_ctrls_0.averagePower            668.243109                       # Core power per rank (mW)
system.mem_ctrls_0.memoryStateTime::IDLE 3790818810750                       # Time in different power states
system.mem_ctrls_0.memoryStateTime::REF  131195220000                       # Time in different power states
system.mem_ctrls_0.memoryStateTime::PRE_PDN            0                       # Time in different power states
system.mem_ctrls_0.memoryStateTime::ACT    6907338750                       # Time in different power states
system.mem_ctrls_0.memoryStateTime::ACT_PDN            0                       # Time in different power states
system.mem_ctrls_1.actEnergy                 58552200                       # Energy for activate commands per rank (pJ)
system.mem_ctrls_1.preEnergy                 31948125                       # Energy for precharge commands per rank (pJ)
system.mem_ctrls_1.readEnergy               152622600                       # Energy for read commands per rank (pJ)
system.mem_ctrls_1.writeEnergy               31564080                       # Energy for write commands per rank (pJ)
system.mem_ctrls_1.refreshEnergy         256869078960                       # Energy for refresh commands per rank (pJ)
system.mem_ctrls_1.actBackEnergy          91107206280                       # Energy for active background per rank (pJ)
system.mem_ctrls_1.preBackEnergy         2279740433250                       # Energy for precharge background per rank (pJ)
system.mem_ctrls_1.totalEnergy           2627991405495                       # Total energy per rank (pJ)
system.mem_ctrls_1.averagePower            668.229952                       # Core power per rank (mW)
system.mem_ctrls_1.memoryStateTime::IDLE 3791170650250                       # Time in different power states
system.mem_ctrls_1.memoryStateTime::REF  131195220000                       # Time in different power states
system.mem_ctrls_1.memoryStateTime::PRE_PDN            0                       # Time in different power states
system.mem_ctrls_1.memoryStateTime::ACT    6554141000                       # Time in different power states
system.mem_ctrls_1.memoryStateTime::ACT_PDN            0                       # Time in different power states
system.cpu_voltage_domain.voltage                   1                       # Voltage in Volts
system.cpu_clk_domain.clock                       500                       # Clock period in ticks
system.cpu0.apic_clk_domain.clock                8000                       # Clock period in ticks
system.cpu0.numCycles                      7859891350                       # number of cpu cycles simulated
system.cpu0.numWorkItemsStarted                     0                       # number of work items this cpu started
system.cpu0.numWorkItemsCompleted                   0                       # number of work items this cpu completed
system.cpu0.kern.inst.arm                           0                       # number of arm instructions executed
system.cpu0.kern.inst.quiesce                       0                       # number of quiesce instructions executed
system.cpu0.committedInsts                 1994585797                       # Number of instructions committed
system.cpu0.committedOps                   3393234802                       # Number of ops (including micro ops) committed
system.cpu0.num_int_alu_accesses           2757875113                       # Number of integer alu accesses
system.cpu0.num_fp_alu_accesses            1010088645                       # Number of float alu accesses
system.cpu0.num_func_calls                   49957504                       # number of times a function call or return occured
system.cpu0.num_conditional_control_insts    199829671                       # number of instructions that are conditional controls
system.cpu0.num_int_insts                  2757875113                       # number of integer instructions
system.cpu0.num_fp_insts                   1010088645                       # number of float instructions
system.cpu0.num_int_register_reads         5218963014                       # number of times the integer registers were read
system.cpu0.num_int_register_writes        2052858841                       # number of times the integer registers were written
system.cpu0.num_fp_register_reads          1701898923                       # number of times the floating registers were read
system.cpu0.num_fp_register_writes          899765754                       # number of times the floating registers were written
system.cpu0.num_cc_register_reads          1288776036                       # number of times the CC registers were read
system.cpu0.num_cc_register_writes         1039465183                       # number of times the CC registers were written
system.cpu0.num_mem_refs                    738323871                       # number of memory refs
system.cpu0.num_load_insts                  571858536                       # Number of load instructions
system.cpu0.num_store_insts                 166465335                       # Number of store instructions
system.cpu0.num_idle_cycles              69796592.184078                       # Number of idle cycles
system.cpu0.num_busy_cycles              7790094757.815923                       # Number of busy cycles
system.cpu0.not_idle_fraction                0.991120                       # Percentage of non-idle cycles
system.cpu0.idle_fraction                    0.008880                       # Percentage of idle cycles
system.cpu0.Branches                        261202384                       # Number of branches fetched
system.cpu0.op_class::No_OpClass              1514327      0.04%      0.04% # Class of executed instruction
system.cpu0.op_class::IntAlu               2189522428     64.53%     64.57% # Class of executed instruction
system.cpu0.op_class::IntMult                24044497      0.71%     65.28% # Class of executed instruction
system.cpu0.op_class::IntDiv                   210387      0.01%     65.29% # Class of executed instruction
system.cpu0.op_class::FloatAdd              439619448     12.96%     78.24% # Class of executed instruction
system.cpu0.op_class::FloatCmp                      0      0.00%     78.24% # Class of executed instruction
system.cpu0.op_class::FloatCvt                      0      0.00%     78.24% # Class of executed instruction
system.cpu0.op_class::FloatMult                     0      0.00%     78.24% # Class of executed instruction
system.cpu0.op_class::FloatDiv                      0      0.00%     78.24% # Class of executed instruction
system.cpu0.op_class::FloatSqrt                     0      0.00%     78.24% # Class of executed instruction
system.cpu0.op_class::SimdAdd                       0      0.00%     78.24% # Class of executed instruction
system.cpu0.op_class::SimdAddAcc                    0      0.00%     78.24% # Class of executed instruction
system.cpu0.op_class::SimdAlu                       0      0.00%     78.24% # Class of executed instruction
system.cpu0.op_class::SimdCmp                       0      0.00%     78.24% # Class of executed instruction
system.cpu0.op_class::SimdCvt                       0      0.00%     78.24% # Class of executed instruction
system.cpu0.op_class::SimdMisc                      0      0.00%     78.24% # Class of executed instruction
system.cpu0.op_class::SimdMult                      0      0.00%     78.24% # Class of executed instruction
system.cpu0.op_class::SimdMultAcc                   0      0.00%     78.24% # Class of executed instruction
system.cpu0.op_class::SimdShift                     0      0.00%     78.24% # Class of executed instruction
system.cpu0.op_class::SimdShiftAcc                  0      0.00%     78.24% # Class of executed instruction
system.cpu0.op_class::SimdSqrt                      0      0.00%     78.24% # Class of executed instruction
system.cpu0.op_class::SimdFloatAdd                  0      0.00%     78.24% # Class of executed instruction
system.cpu0.op_class::SimdFloatAlu                  0      0.00%     78.24% # Class of executed instruction
system.cpu0.op_class::SimdFloatCmp                  0      0.00%     78.24% # Class of executed instruction
system.cpu0.op_class::SimdFloatCvt                  0      0.00%     78.24% # Class of executed instruction
system.cpu0.op_class::SimdFloatDiv                  0      0.00%     78.24% # Class of executed instruction
system.cpu0.op_class::SimdFloatMisc                 0      0.00%     78.24% # Class of executed instruction
system.cpu0.op_class::SimdFloatMult                 0      0.00%     78.24% # Class of executed instruction
system.cpu0.op_class::SimdFloatMultAcc              0      0.00%     78.24% # Class of executed instruction
system.cpu0.op_class::SimdFloatSqrt                 0      0.00%     78.24% # Class of executed instruction
system.cpu0.op_class::MemRead               571858536     16.85%     95.09% # Class of executed instruction
system.cpu0.op_class::MemWrite              166465335      4.91%    100.00% # Class of executed instruction
system.cpu0.op_class::IprAccess                     0      0.00%    100.00% # Class of executed instruction
system.cpu0.op_class::InstPrefetch                  0      0.00%    100.00% # Class of executed instruction
system.cpu0.op_class::total                3393234958                       # Class of executed instruction
system.cpu1.apic_clk_domain.clock                8000                       # Clock period in ticks
system.cpu1.numCycles                      7854741248                       # number of cpu cycles simulated
system.cpu1.numWorkItemsStarted                     0                       # number of work items this cpu started
system.cpu1.numWorkItemsCompleted                   0                       # number of work items this cpu completed
system.cpu1.kern.inst.arm                           0                       # number of arm instructions executed
system.cpu1.kern.inst.quiesce                       0                       # number of quiesce instructions executed
system.cpu1.committedInsts                    2940085                       # Number of instructions committed
system.cpu1.committedOps                      6303463                       # Number of ops (including micro ops) committed
system.cpu1.num_int_alu_accesses              6167677                       # Number of integer alu accesses
system.cpu1.num_fp_alu_accesses                    65                       # Number of float alu accesses
system.cpu1.num_func_calls                     171631                       # number of times a function call or return occured
system.cpu1.num_conditional_control_insts       452477                       # number of instructions that are conditional controls
system.cpu1.num_int_insts                     6167677                       # number of integer instructions
system.cpu1.num_fp_insts                           65                       # number of float instructions
system.cpu1.num_int_register_reads           12500933                       # number of times the integer registers were read
system.cpu1.num_int_register_writes           5113638                       # number of times the integer registers were written
system.cpu1.num_fp_register_reads                  82                       # number of times the floating registers were read
system.cpu1.num_fp_register_writes                 44                       # number of times the floating registers were written
system.cpu1.num_cc_register_reads             3593392                       # number of times the CC registers were read
system.cpu1.num_cc_register_writes            1887189                       # number of times the CC registers were written
system.cpu1.num_mem_refs                      1487048                       # number of memory refs
system.cpu1.num_load_insts                     924586                       # Number of load instructions
system.cpu1.num_store_insts                    562462                       # Number of store instructions
system.cpu1.num_idle_cycles              7840341213.536975                       # Number of idle cycles
system.cpu1.num_busy_cycles              14400034.463025                       # Number of busy cycles
system.cpu1.not_idle_fraction                0.001833                       # Percentage of non-idle cycles
system.cpu1.idle_fraction                    0.998167                       # Percentage of idle cycles
system.cpu1.Branches                           679875                       # Number of branches fetched
system.cpu1.op_class::No_OpClass               114861      1.82%      1.82% # Class of executed instruction
system.cpu1.op_class::IntAlu                  4647562     73.73%     75.55% # Class of executed instruction
system.cpu1.op_class::IntMult                   12590      0.20%     75.75% # Class of executed instruction
system.cpu1.op_class::IntDiv                    41400      0.66%     76.41% # Class of executed instruction
system.cpu1.op_class::FloatAdd                     22      0.00%     76.41% # Class of executed instruction
system.cpu1.op_class::FloatCmp                      0      0.00%     76.41% # Class of executed instruction
system.cpu1.op_class::FloatCvt                      0      0.00%     76.41% # Class of executed instruction
system.cpu1.op_class::FloatMult                     0      0.00%     76.41% # Class of executed instruction
system.cpu1.op_class::FloatDiv                      0      0.00%     76.41% # Class of executed instruction
system.cpu1.op_class::FloatSqrt                     0      0.00%     76.41% # Class of executed instruction
system.cpu1.op_class::SimdAdd                       0      0.00%     76.41% # Class of executed instruction
system.cpu1.op_class::SimdAddAcc                    0      0.00%     76.41% # Class of executed instruction
system.cpu1.op_class::SimdAlu                       0      0.00%     76.41% # Class of executed instruction
system.cpu1.op_class::SimdCmp                       0      0.00%     76.41% # Class of executed instruction
system.cpu1.op_class::SimdCvt                       0      0.00%     76.41% # Class of executed instruction
system.cpu1.op_class::SimdMisc                      0      0.00%     76.41% # Class of executed instruction
system.cpu1.op_class::SimdMult                      0      0.00%     76.41% # Class of executed instruction
system.cpu1.op_class::SimdMultAcc                   0      0.00%     76.41% # Class of executed instruction
system.cpu1.op_class::SimdShift                     0      0.00%     76.41% # Class of executed instruction
system.cpu1.op_class::SimdShiftAcc                  0      0.00%     76.41% # Class of executed instruction
system.cpu1.op_class::SimdSqrt                      0      0.00%     76.41% # Class of executed instruction
system.cpu1.op_class::SimdFloatAdd                  0      0.00%     76.41% # Class of executed instruction
system.cpu1.op_class::SimdFloatAlu                  0      0.00%     76.41% # Class of executed instruction
system.cpu1.op_class::SimdFloatCmp                  0      0.00%     76.41% # Class of executed instruction
system.cpu1.op_class::SimdFloatCvt                  0      0.00%     76.41% # Class of executed instruction
system.cpu1.op_class::SimdFloatDiv                  0      0.00%     76.41% # Class of executed instruction
system.cpu1.op_class::SimdFloatMisc                 0      0.00%     76.41% # Class of executed instruction
system.cpu1.op_class::SimdFloatMult                 0      0.00%     76.41% # Class of executed instruction
system.cpu1.op_class::SimdFloatMultAcc              0      0.00%     76.41% # Class of executed instruction
system.cpu1.op_class::SimdFloatSqrt                 0      0.00%     76.41% # Class of executed instruction
system.cpu1.op_class::MemRead                  924586     14.67%     91.08% # Class of executed instruction
system.cpu1.op_class::MemWrite                 562462      8.92%    100.00% # Class of executed instruction
system.cpu1.op_class::IprAccess                     0      0.00%    100.00% # Class of executed instruction
system.cpu1.op_class::InstPrefetch                  0      0.00%    100.00% # Class of executed instruction
system.cpu1.op_class::total                   6303483                       # Class of executed instruction
system.cpu2.apic_clk_domain.clock                8000                       # Clock period in ticks
system.cpu2.numCycles                      7857243367                       # number of cpu cycles simulated
system.cpu2.numWorkItemsStarted                     0                       # number of work items this cpu started
system.cpu2.numWorkItemsCompleted                   0                       # number of work items this cpu completed
system.cpu2.kern.inst.arm                           0                       # number of arm instructions executed
system.cpu2.kern.inst.quiesce                       0                       # number of quiesce instructions executed
system.cpu2.committedInsts                    3500250                       # Number of instructions committed
system.cpu2.committedOps                      7313745                       # Number of ops (including micro ops) committed
system.cpu2.num_int_alu_accesses              7166792                       # Number of integer alu accesses
system.cpu2.num_fp_alu_accesses                  1837                       # Number of float alu accesses
system.cpu2.num_func_calls                     187054                       # number of times a function call or return occured
system.cpu2.num_conditional_control_insts       540830                       # number of instructions that are conditional controls
system.cpu2.num_int_insts                     7166792                       # number of integer instructions
system.cpu2.num_fp_insts                         1837                       # number of float instructions
system.cpu2.num_int_register_reads           14545149                       # number of times the integer registers were read
system.cpu2.num_int_register_writes           5921788                       # number of times the integer registers were written
system.cpu2.num_fp_register_reads                3081                       # number of times the floating registers were read
system.cpu2.num_fp_register_writes               1457                       # number of times the floating registers were written
system.cpu2.num_cc_register_reads             4170344                       # number of times the CC registers were read
system.cpu2.num_cc_register_writes            2251743                       # number of times the CC registers were written
system.cpu2.num_mem_refs                      1712058                       # number of memory refs
system.cpu2.num_load_insts                    1061801                       # Number of load instructions
system.cpu2.num_store_insts                    650257                       # Number of store instructions
system.cpu2.num_idle_cycles              7840099447.550237                       # Number of idle cycles
system.cpu2.num_busy_cycles              17143919.449764                       # Number of busy cycles
system.cpu2.not_idle_fraction                0.002182                       # Percentage of non-idle cycles
system.cpu2.idle_fraction                    0.997818                       # Percentage of idle cycles
system.cpu2.Branches                           791279                       # Number of branches fetched
system.cpu2.op_class::No_OpClass               120706      1.65%      1.65% # Class of executed instruction
system.cpu2.op_class::IntAlu                  5423483     74.15%     75.80% # Class of executed instruction
system.cpu2.op_class::IntMult                   13343      0.18%     75.99% # Class of executed instruction
system.cpu2.op_class::IntDiv                    42876      0.59%     76.57% # Class of executed instruction
system.cpu2.op_class::FloatAdd                   1366      0.02%     76.59% # Class of executed instruction
system.cpu2.op_class::FloatCmp                      0      0.00%     76.59% # Class of executed instruction
system.cpu2.op_class::FloatCvt                      0      0.00%     76.59% # Class of executed instruction
system.cpu2.op_class::FloatMult                     0      0.00%     76.59% # Class of executed instruction
system.cpu2.op_class::FloatDiv                      0      0.00%     76.59% # Class of executed instruction
system.cpu2.op_class::FloatSqrt                     0      0.00%     76.59% # Class of executed instruction
system.cpu2.op_class::SimdAdd                       0      0.00%     76.59% # Class of executed instruction
system.cpu2.op_class::SimdAddAcc                    0      0.00%     76.59% # Class of executed instruction
system.cpu2.op_class::SimdAlu                       0      0.00%     76.59% # Class of executed instruction
system.cpu2.op_class::SimdCmp                       0      0.00%     76.59% # Class of executed instruction
system.cpu2.op_class::SimdCvt                       0      0.00%     76.59% # Class of executed instruction
system.cpu2.op_class::SimdMisc                      0      0.00%     76.59% # Class of executed instruction
system.cpu2.op_class::SimdMult                      0      0.00%     76.59% # Class of executed instruction
system.cpu2.op_class::SimdMultAcc                   0      0.00%     76.59% # Class of executed instruction
system.cpu2.op_class::SimdShift                     0      0.00%     76.59% # Class of executed instruction
system.cpu2.op_class::SimdShiftAcc                  0      0.00%     76.59% # Class of executed instruction
system.cpu2.op_class::SimdSqrt                      0      0.00%     76.59% # Class of executed instruction
system.cpu2.op_class::SimdFloatAdd                  0      0.00%     76.59% # Class of executed instruction
system.cpu2.op_class::SimdFloatAlu                  0      0.00%     76.59% # Class of executed instruction
system.cpu2.op_class::SimdFloatCmp                  0      0.00%     76.59% # Class of executed instruction
system.cpu2.op_class::SimdFloatCvt                  0      0.00%     76.59% # Class of executed instruction
system.cpu2.op_class::SimdFloatDiv                  0      0.00%     76.59% # Class of executed instruction
system.cpu2.op_class::SimdFloatMisc                 0      0.00%     76.59% # Class of executed instruction
system.cpu2.op_class::SimdFloatMult                 0      0.00%     76.59% # Class of executed instruction
system.cpu2.op_class::SimdFloatMultAcc              0      0.00%     76.59% # Class of executed instruction
system.cpu2.op_class::SimdFloatSqrt                 0      0.00%     76.59% # Class of executed instruction
system.cpu2.op_class::MemRead                 1061801     14.52%     91.11% # Class of executed instruction
system.cpu2.op_class::MemWrite                 650257      8.89%    100.00% # Class of executed instruction
system.cpu2.op_class::IprAccess                     0      0.00%    100.00% # Class of executed instruction
system.cpu2.op_class::InstPrefetch                  0      0.00%    100.00% # Class of executed instruction
system.cpu2.op_class::total                   7313832                       # Class of executed instruction
system.cpu3.apic_clk_domain.clock                8000                       # Clock period in ticks
system.cpu3.numCycles                      7855993717                       # number of cpu cycles simulated
system.cpu3.numWorkItemsStarted                     0                       # number of work items this cpu started
system.cpu3.numWorkItemsCompleted                   0                       # number of work items this cpu completed
system.cpu3.kern.inst.arm                           0                       # number of arm instructions executed
system.cpu3.kern.inst.quiesce                       0                       # number of quiesce instructions executed
system.cpu3.committedInsts                   19325998                       # Number of instructions committed
system.cpu3.committedOps                     34165403                       # Number of ops (including micro ops) committed
system.cpu3.num_int_alu_accesses             28768143                       # Number of integer alu accesses
system.cpu3.num_fp_alu_accesses               8399271                       # Number of float alu accesses
system.cpu3.num_func_calls                     588185                       # number of times a function call or return occured
system.cpu3.num_conditional_control_insts      2047066                       # number of instructions that are conditional controls
system.cpu3.num_int_insts                    28768143                       # number of integer instructions
system.cpu3.num_fp_insts                      8399271                       # number of float instructions
system.cpu3.num_int_register_reads           55519890                       # number of times the integer registers were read
system.cpu3.num_int_register_writes          21892759                       # number of times the integer registers were written
system.cpu3.num_fp_register_reads            14064247                       # number of times the floating registers were read
system.cpu3.num_fp_register_writes            7474237                       # number of times the floating registers were written
system.cpu3.num_cc_register_reads            13978096                       # number of times the CC registers were read
system.cpu3.num_cc_register_writes           10279537                       # number of times the CC registers were written
system.cpu3.num_mem_refs                      7659129                       # number of memory refs
system.cpu3.num_load_insts                    5706307                       # Number of load instructions
system.cpu3.num_store_insts                   1952822                       # Number of store instructions
system.cpu3.num_idle_cycles              7777391650.120982                       # Number of idle cycles
system.cpu3.num_busy_cycles              78602066.879018                       # Number of busy cycles
system.cpu3.not_idle_fraction                0.010005                       # Percentage of non-idle cycles
system.cpu3.idle_fraction                    0.989995                       # Percentage of idle cycles
system.cpu3.Branches                          2787643                       # Number of branches fetched
system.cpu3.op_class::No_OpClass               127232      0.37%      0.37% # Class of executed instruction
system.cpu3.op_class::IntAlu                 22504164     65.87%     66.24% # Class of executed instruction
system.cpu3.op_class::IntMult                  213553      0.63%     66.87% # Class of executed instruction
system.cpu3.op_class::IntDiv                    43171      0.13%     66.99% # Class of executed instruction
system.cpu3.op_class::FloatAdd                3618197     10.59%     77.58% # Class of executed instruction
system.cpu3.op_class::FloatCmp                      0      0.00%     77.58% # Class of executed instruction
system.cpu3.op_class::FloatCvt                      0      0.00%     77.58% # Class of executed instruction
system.cpu3.op_class::FloatMult                     0      0.00%     77.58% # Class of executed instruction
system.cpu3.op_class::FloatDiv                      0      0.00%     77.58% # Class of executed instruction
system.cpu3.op_class::FloatSqrt                     0      0.00%     77.58% # Class of executed instruction
system.cpu3.op_class::SimdAdd                       0      0.00%     77.58% # Class of executed instruction
system.cpu3.op_class::SimdAddAcc                    0      0.00%     77.58% # Class of executed instruction
system.cpu3.op_class::SimdAlu                       0      0.00%     77.58% # Class of executed instruction
system.cpu3.op_class::SimdCmp                       0      0.00%     77.58% # Class of executed instruction
system.cpu3.op_class::SimdCvt                       0      0.00%     77.58% # Class of executed instruction
system.cpu3.op_class::SimdMisc                      0      0.00%     77.58% # Class of executed instruction
system.cpu3.op_class::SimdMult                      0      0.00%     77.58% # Class of executed instruction
system.cpu3.op_class::SimdMultAcc                   0      0.00%     77.58% # Class of executed instruction
system.cpu3.op_class::SimdShift                     0      0.00%     77.58% # Class of executed instruction
system.cpu3.op_class::SimdShiftAcc                  0      0.00%     77.58% # Class of executed instruction
system.cpu3.op_class::SimdSqrt                      0      0.00%     77.58% # Class of executed instruction
system.cpu3.op_class::SimdFloatAdd                  0      0.00%     77.58% # Class of executed instruction
system.cpu3.op_class::SimdFloatAlu                  0      0.00%     77.58% # Class of executed instruction
system.cpu3.op_class::SimdFloatCmp                  0      0.00%     77.58% # Class of executed instruction
system.cpu3.op_class::SimdFloatCvt                  0      0.00%     77.58% # Class of executed instruction
system.cpu3.op_class::SimdFloatDiv                  0      0.00%     77.58% # Class of executed instruction
system.cpu3.op_class::SimdFloatMisc                 0      0.00%     77.58% # Class of executed instruction
system.cpu3.op_class::SimdFloatMult                 0      0.00%     77.58% # Class of executed instruction
system.cpu3.op_class::SimdFloatMultAcc              0      0.00%     77.58% # Class of executed instruction
system.cpu3.op_class::SimdFloatSqrt                 0      0.00%     77.58% # Class of executed instruction
system.cpu3.op_class::MemRead                 5706307     16.70%     94.28% # Class of executed instruction
system.cpu3.op_class::MemWrite                1952822      5.72%    100.00% # Class of executed instruction
system.cpu3.op_class::IprAccess                     0      0.00%    100.00% # Class of executed instruction
system.cpu3.op_class::InstPrefetch                  0      0.00%    100.00% # Class of executed instruction
system.cpu3.op_class::total                  34165446                       # Class of executed instruction
system.iobus.trans_dist::ReadReq                  113                       # Transaction distribution
system.iobus.trans_dist::ReadResp                 113                       # Transaction distribution
system.iobus.trans_dist::WriteReq                4056                       # Transaction distribution
system.iobus.trans_dist::WriteResp               4056                       # Transaction distribution
system.iobus.trans_dist::MessageReq                19                       # Transaction distribution
system.iobus.trans_dist::MessageResp               19                       # Transaction distribution
system.iobus.pkt_count_system.pc.south_bridge.io_apic.int_master::system.ruby.l0_cntrl0.sequencer.pio-slave-port            4                       # Packet count per connected master and slave (bytes)
system.iobus.pkt_count_system.pc.south_bridge.io_apic.int_master::system.ruby.l0_cntrl1.sequencer.pio-slave-port            4                       # Packet count per connected master and slave (bytes)
system.iobus.pkt_count_system.pc.south_bridge.io_apic.int_master::system.ruby.l0_cntrl2.sequencer.pio-slave-port            4                       # Packet count per connected master and slave (bytes)
system.iobus.pkt_count_system.pc.south_bridge.io_apic.int_master::system.ruby.l0_cntrl3.sequencer.pio-slave-port            4                       # Packet count per connected master and slave (bytes)
system.iobus.pkt_count_system.pc.south_bridge.io_apic.int_master::total           16                       # Packet count per connected master and slave (bytes)
system.iobus.pkt_count_system.ruby.l0_cntrl0.sequencer.mem-master-port::system.pc.south_bridge.ide.pio           12                       # Packet count per connected master and slave (bytes)
system.iobus.pkt_count_system.ruby.l0_cntrl0.sequencer.mem-master-port::system.pc.south_bridge.io_apic.pio            8                       # Packet count per connected master and slave (bytes)
system.iobus.pkt_count_system.ruby.l0_cntrl0.sequencer.mem-master-port::system.ruby.l0_cntrl0.sequencer.pio-slave-port         1994                       # Packet count per connected master and slave (bytes)
system.iobus.pkt_count_system.ruby.l0_cntrl0.sequencer.mem-master-port::system.ruby.l0_cntrl1.sequencer.pio-slave-port            6                       # Packet count per connected master and slave (bytes)
system.iobus.pkt_count_system.ruby.l0_cntrl0.sequencer.mem-master-port::system.ruby.l0_cntrl2.sequencer.pio-slave-port            2                       # Packet count per connected master and slave (bytes)
system.iobus.pkt_count_system.ruby.l0_cntrl0.sequencer.mem-master-port::system.ruby.l0_cntrl3.sequencer.pio-slave-port            4                       # Packet count per connected master and slave (bytes)
system.iobus.pkt_count_system.ruby.l0_cntrl0.sequencer.mem-master-port::total         2026                       # Packet count per connected master and slave (bytes)
system.iobus.pkt_count_system.ruby.l0_cntrl1.sequencer.mem-master-port::system.pc.south_bridge.ide.pio           80                       # Packet count per connected master and slave (bytes)
system.iobus.pkt_count_system.ruby.l0_cntrl1.sequencer.mem-master-port::system.pc.south_bridge.io_apic.pio            8                       # Packet count per connected master and slave (bytes)
system.iobus.pkt_count_system.ruby.l0_cntrl1.sequencer.mem-master-port::system.pc.com_1.pio            2                       # Packet count per connected master and slave (bytes)
system.iobus.pkt_count_system.ruby.l0_cntrl1.sequencer.mem-master-port::system.ruby.l0_cntrl1.sequencer.pio-slave-port         1984                       # Packet count per connected master and slave (bytes)
system.iobus.pkt_count_system.ruby.l0_cntrl1.sequencer.mem-master-port::system.ruby.l0_cntrl2.sequencer.pio-slave-port            2                       # Packet count per connected master and slave (bytes)
system.iobus.pkt_count_system.ruby.l0_cntrl1.sequencer.mem-master-port::total         2076                       # Packet count per connected master and slave (bytes)
system.iobus.pkt_count_system.ruby.l0_cntrl2.sequencer.mem-master-port::system.pc.south_bridge.ide.pio           46                       # Packet count per connected master and slave (bytes)
system.iobus.pkt_count_system.ruby.l0_cntrl2.sequencer.mem-master-port::system.pc.south_bridge.io_apic.pio            6                       # Packet count per connected master and slave (bytes)
system.iobus.pkt_count_system.ruby.l0_cntrl2.sequencer.mem-master-port::system.pc.com_1.pio          174                       # Packet count per connected master and slave (bytes)
system.iobus.pkt_count_system.ruby.l0_cntrl2.sequencer.mem-master-port::system.ruby.l0_cntrl1.sequencer.pio-slave-port            2                       # Packet count per connected master and slave (bytes)
system.iobus.pkt_count_system.ruby.l0_cntrl2.sequencer.mem-master-port::system.ruby.l0_cntrl2.sequencer.pio-slave-port         1984                       # Packet count per connected master and slave (bytes)
system.iobus.pkt_count_system.ruby.l0_cntrl2.sequencer.mem-master-port::system.ruby.l0_cntrl3.sequencer.pio-slave-port            2                       # Packet count per connected master and slave (bytes)
system.iobus.pkt_count_system.ruby.l0_cntrl2.sequencer.mem-master-port::total         2214                       # Packet count per connected master and slave (bytes)
system.iobus.pkt_count_system.ruby.l0_cntrl3.sequencer.mem-master-port::system.pc.south_bridge.ide.pio           46                       # Packet count per connected master and slave (bytes)
system.iobus.pkt_count_system.ruby.l0_cntrl3.sequencer.mem-master-port::system.pc.south_bridge.io_apic.pio            8                       # Packet count per connected master and slave (bytes)
system.iobus.pkt_count_system.ruby.l0_cntrl3.sequencer.mem-master-port::system.ruby.l0_cntrl0.sequencer.pio-slave-port            2                       # Packet count per connected master and slave (bytes)
system.iobus.pkt_count_system.ruby.l0_cntrl3.sequencer.mem-master-port::system.ruby.l0_cntrl1.sequencer.pio-slave-port            2                       # Packet count per connected master and slave (bytes)
system.iobus.pkt_count_system.ruby.l0_cntrl3.sequencer.mem-master-port::system.ruby.l0_cntrl3.sequencer.pio-slave-port         1986                       # Packet count per connected master and slave (bytes)
system.iobus.pkt_count_system.ruby.l0_cntrl3.sequencer.mem-master-port::total         2044                       # Packet count per connected master and slave (bytes)
system.iobus.pkt_count::total                    8376                       # Packet count per connected master and slave (bytes)
system.iobus.pkt_size_system.pc.south_bridge.io_apic.int_master::system.ruby.l0_cntrl0.sequencer.pio-slave-port            8                       # Cumulative packet size per connected master and slave (bytes)
system.iobus.pkt_size_system.pc.south_bridge.io_apic.int_master::system.ruby.l0_cntrl1.sequencer.pio-slave-port            8                       # Cumulative packet size per connected master and slave (bytes)
system.iobus.pkt_size_system.pc.south_bridge.io_apic.int_master::system.ruby.l0_cntrl2.sequencer.pio-slave-port            8                       # Cumulative packet size per connected master and slave (bytes)
system.iobus.pkt_size_system.pc.south_bridge.io_apic.int_master::system.ruby.l0_cntrl3.sequencer.pio-slave-port            8                       # Cumulative packet size per connected master and slave (bytes)
system.iobus.pkt_size_system.pc.south_bridge.io_apic.int_master::total           32                       # Cumulative packet size per connected master and slave (bytes)
system.iobus.pkt_size_system.ruby.l0_cntrl0.sequencer.mem-master-port::system.pc.south_bridge.ide.pio            6                       # Cumulative packet size per connected master and slave (bytes)
system.iobus.pkt_size_system.ruby.l0_cntrl0.sequencer.mem-master-port::system.pc.south_bridge.io_apic.pio           16                       # Cumulative packet size per connected master and slave (bytes)
system.iobus.pkt_size_system.ruby.l0_cntrl0.sequencer.mem-master-port::system.ruby.l0_cntrl0.sequencer.pio-slave-port         3988                       # Cumulative packet size per connected master and slave (bytes)
system.iobus.pkt_size_system.ruby.l0_cntrl0.sequencer.mem-master-port::system.ruby.l0_cntrl1.sequencer.pio-slave-port           12                       # Cumulative packet size per connected master and slave (bytes)
system.iobus.pkt_size_system.ruby.l0_cntrl0.sequencer.mem-master-port::system.ruby.l0_cntrl2.sequencer.pio-slave-port            4                       # Cumulative packet size per connected master and slave (bytes)
system.iobus.pkt_size_system.ruby.l0_cntrl0.sequencer.mem-master-port::system.ruby.l0_cntrl3.sequencer.pio-slave-port            8                       # Cumulative packet size per connected master and slave (bytes)
system.iobus.pkt_size_system.ruby.l0_cntrl0.sequencer.mem-master-port::total         4034                       # Cumulative packet size per connected master and slave (bytes)
system.iobus.pkt_size_system.ruby.l0_cntrl1.sequencer.mem-master-port::system.pc.south_bridge.ide.pio           46                       # Cumulative packet size per connected master and slave (bytes)
system.iobus.pkt_size_system.ruby.l0_cntrl1.sequencer.mem-master-port::system.pc.south_bridge.io_apic.pio           16                       # Cumulative packet size per connected master and slave (bytes)
system.iobus.pkt_size_system.ruby.l0_cntrl1.sequencer.mem-master-port::system.pc.com_1.pio            1                       # Cumulative packet size per connected master and slave (bytes)
system.iobus.pkt_size_system.ruby.l0_cntrl1.sequencer.mem-master-port::system.ruby.l0_cntrl1.sequencer.pio-slave-port         3968                       # Cumulative packet size per connected master and slave (bytes)
system.iobus.pkt_size_system.ruby.l0_cntrl1.sequencer.mem-master-port::system.ruby.l0_cntrl2.sequencer.pio-slave-port            4                       # Cumulative packet size per connected master and slave (bytes)
system.iobus.pkt_size_system.ruby.l0_cntrl1.sequencer.mem-master-port::total         4035                       # Cumulative packet size per connected master and slave (bytes)
system.iobus.pkt_size_system.ruby.l0_cntrl2.sequencer.mem-master-port::system.pc.south_bridge.ide.pio           26                       # Cumulative packet size per connected master and slave (bytes)
system.iobus.pkt_size_system.ruby.l0_cntrl2.sequencer.mem-master-port::system.pc.south_bridge.io_apic.pio           12                       # Cumulative packet size per connected master and slave (bytes)
system.iobus.pkt_size_system.ruby.l0_cntrl2.sequencer.mem-master-port::system.pc.com_1.pio           87                       # Cumulative packet size per connected master and slave (bytes)
system.iobus.pkt_size_system.ruby.l0_cntrl2.sequencer.mem-master-port::system.ruby.l0_cntrl1.sequencer.pio-slave-port            4                       # Cumulative packet size per connected master and slave (bytes)
system.iobus.pkt_size_system.ruby.l0_cntrl2.sequencer.mem-master-port::system.ruby.l0_cntrl2.sequencer.pio-slave-port         3968                       # Cumulative packet size per connected master and slave (bytes)
system.iobus.pkt_size_system.ruby.l0_cntrl2.sequencer.mem-master-port::system.ruby.l0_cntrl3.sequencer.pio-slave-port            4                       # Cumulative packet size per connected master and slave (bytes)
system.iobus.pkt_size_system.ruby.l0_cntrl2.sequencer.mem-master-port::total         4101                       # Cumulative packet size per connected master and slave (bytes)
system.iobus.pkt_size_system.ruby.l0_cntrl3.sequencer.mem-master-port::system.pc.south_bridge.ide.pio           26                       # Cumulative packet size per connected master and slave (bytes)
system.iobus.pkt_size_system.ruby.l0_cntrl3.sequencer.mem-master-port::system.pc.south_bridge.io_apic.pio           16                       # Cumulative packet size per connected master and slave (bytes)
system.iobus.pkt_size_system.ruby.l0_cntrl3.sequencer.mem-master-port::system.ruby.l0_cntrl0.sequencer.pio-slave-port            4                       # Cumulative packet size per connected master and slave (bytes)
system.iobus.pkt_size_system.ruby.l0_cntrl3.sequencer.mem-master-port::system.ruby.l0_cntrl1.sequencer.pio-slave-port            4                       # Cumulative packet size per connected master and slave (bytes)
system.iobus.pkt_size_system.ruby.l0_cntrl3.sequencer.mem-master-port::system.ruby.l0_cntrl3.sequencer.pio-slave-port         3972                       # Cumulative packet size per connected master and slave (bytes)
system.iobus.pkt_size_system.ruby.l0_cntrl3.sequencer.mem-master-port::total         4022                       # Cumulative packet size per connected master and slave (bytes)
system.iobus.pkt_size::total                    16224                       # Cumulative packet size per connected master and slave (bytes)
system.iobus.reqLayer2.occupancy               159000                       # Layer occupancy (ticks)
system.iobus.reqLayer2.utilization                0.0                       # Layer utilization (%)
system.iobus.reqLayer8.occupancy                28996                       # Layer occupancy (ticks)
system.iobus.reqLayer8.utilization                0.0                       # Layer utilization (%)
system.iobus.reqLayer12.occupancy              113000                       # Layer occupancy (ticks)
system.iobus.reqLayer12.utilization               0.0                       # Layer utilization (%)
system.iobus.reqLayer17.occupancy             2247980                       # Layer occupancy (ticks)
system.iobus.reqLayer17.utilization               0.0                       # Layer utilization (%)
system.iobus.reqLayer18.occupancy             2491498                       # Layer occupancy (ticks)
system.iobus.reqLayer18.utilization               0.0                       # Layer utilization (%)
system.iobus.reqLayer19.occupancy             2480497                       # Layer occupancy (ticks)
system.iobus.reqLayer19.utilization               0.0                       # Layer utilization (%)
system.iobus.reqLayer20.occupancy             2484993                       # Layer occupancy (ticks)
system.iobus.reqLayer20.utilization               0.0                       # Layer utilization (%)
system.iobus.respLayer0.occupancy               12996                       # Layer occupancy (ticks)
system.iobus.respLayer0.utilization               0.0                       # Layer utilization (%)
system.iobus.respLayer2.occupancy             1521000                       # Layer occupancy (ticks)
system.iobus.respLayer2.utilization               0.0                       # Layer utilization (%)
system.iobus.respLayer4.occupancy             1549000                       # Layer occupancy (ticks)
system.iobus.respLayer4.utilization               0.0                       # Layer utilization (%)
system.iobus.respLayer6.occupancy             1679000                       # Layer occupancy (ticks)
system.iobus.respLayer6.utilization               0.0                       # Layer utilization (%)
system.iobus.respLayer8.occupancy             1530500                       # Layer occupancy (ticks)
system.iobus.respLayer8.utilization               0.0                       # Layer utilization (%)
system.pc.south_bridge.ide.disks.dma_read_full_pages            1                       # Number of full page size DMA reads (not PRD).
system.pc.south_bridge.ide.disks.dma_read_bytes         4096                       # Number of bytes transfered via DMA reads (not PRD).
system.pc.south_bridge.ide.disks.dma_read_txs            1                       # Number of DMA read transactions (not PRD).
system.pc.south_bridge.ide.disks.dma_write_full_pages           45                       # Number of full page size DMA writes.
system.pc.south_bridge.ide.disks.dma_write_bytes       184320                       # Number of bytes transfered via DMA writes.
system.pc.south_bridge.ide.disks.dma_write_txs           45                       # Number of DMA write transactions.
system.ruby.clk_domain.clock                      500                       # Clock period in ticks
system.ruby.delayHist::bucket_size                  4                       # delay histogram for all message
system.ruby.delayHist::max_bucket                  39                       # delay histogram for all message
system.ruby.delayHist::samples              182021998                       # delay histogram for all message
system.ruby.delayHist::mean                  0.136883                       # delay histogram for all message
system.ruby.delayHist::stdev                 1.037465                       # delay histogram for all message
[...]
system.ruby.L1Cache_Controller.L0_Ack    |     1121579     84.12%     84.12% |       69946      5.25%     89.36% |       68461      5.13%     94.50% |       73367      5.50%    100.00%
system.ruby.L1Cache_Controller.L0_Ack::total      1333353                      
system.ruby.L1Cache_Controller.Ack       |       19535     52.80%     52.80% |        6207     16.78%     69.57% |        6669     18.02%     87.60% |        4589     12.40%    100.00%
system.ruby.L1Cache_Controller.Ack::total        37000                      
system.ruby.L1Cache_Controller.Ack_all   |        8624     40.70%     40.70% |        4181     19.73%     60.43% |        4920     23.22%     83.65% |        3464     16.35%    100.00%
system.ruby.L1Cache_Controller.Ack_all::total        21189                      
system.ruby.L1Cache_Controller.WB_Ack    |     8198447     96.75%     96.75% |       73684      0.87%     97.62% |       70064      0.83%     98.45% |      131373      1.55%    100.00%
system.ruby.L1Cache_Controller.WB_Ack::total      8473568                      
system.ruby.L1Cache_Controller.I.Load    |     6527106     94.05%     94.05% |      127844      1.84%     95.89% |      119221      1.72%     97.61% |      165977      2.39%    100.00%
system.ruby.L1Cache_Controller.I.Load::total      6940148                      
system.ruby.L1Cache_Controller.I.Store   |     2349559     96.56%     96.56% |       18843      0.77%     97.34% |       23531      0.97%     98.30% |       41265      1.70%    100.00%
system.ruby.L1Cache_Controller.I.Store::total      2433198                      
system.ruby.L1Cache_Controller.I.Inv     |        1552      8.16%      8.16% |        5628     29.59%     37.75% |        5758     30.27%     68.02% |        6083     31.98%    100.00%
system.ruby.L1Cache_Controller.I.Inv::total        19021                      
system.ruby.L1Cache_Controller.S.Load    |    17000014     95.02%     95.02% |      282572      1.58%     96.60% |      292783      1.64%     98.24% |      315480      1.76%    100.00%
system.ruby.L1Cache_Controller.S.Load::total     17890849                      
system.ruby.L1Cache_Controller.S.Store   |        5703     38.93%     38.93% |        3068     20.94%     59.88% |        3550     24.24%     84.11% |        2327     15.89%    100.00%
system.ruby.L1Cache_Controller.S.Store::total        14648                      
system.ruby.L1Cache_Controller.S.L0_Invalidate_Own |      670843     78.90%     78.90% |       59669      7.02%     85.92% |       57463      6.76%     92.68% |       62277      7.32%    100.00%
system.ruby.L1Cache_Controller.S.L0_Invalidate_Own::total       850252                      
system.ruby.L1Cache_Controller.S.L0_Invalidate_Else |         401      2.07%      2.07% |        7670     39.61%     41.68% |        7428     38.36%     80.04% |        3866     19.96%    100.00%
system.ruby.L1Cache_Controller.S.L0_Invalidate_Else::total        19365                      
system.ruby.L1Cache_Controller.SS.Load   |         406      9.35%      9.35% |        1198     27.59%     36.94% |        1464     33.72%     70.66% |        1274     29.34%    100.00%
system.ruby.L1Cache_Controller.SS.Load::total         4342                      
system.ruby.L1Cache_Controller.SS.Store  |          33     12.60%     12.60% |          55     20.99%     33.59% |         120     45.80%     79.39% |          54     20.61%    100.00%
system.ruby.L1Cache_Controller.SS.Store::total          262                      
system.ruby.L1Cache_Controller.SS.Inv    |        1464      4.50%      4.50% |       10281     31.63%     36.14% |       11222     34.53%     70.67% |        9534     29.33%    100.00%
system.ruby.L1Cache_Controller.SS.Inv::total        32501                      
system.ruby.L1Cache_Controller.SS.L1_Replacement |      674839     78.68%     78.68% |       60404      7.04%     85.72% |       58358      6.80%     92.52% |       64130      7.48%    100.00%
system.ruby.L1Cache_Controller.SS.L1_Replacement::total       857731                      
system.ruby.L1Cache_Controller.E.WriteBack |     5613623     96.51%     96.51% |       57704      0.99%     97.50% |       50264      0.86%     98.36% |       95265      1.64%    100.00%
system.ruby.L1Cache_Controller.E.WriteBack::total      5816856                      
system.ruby.L1Cache_Controller.E.L0_Invalidate_Own |      236658     98.00%     98.00% |         683      0.28%     98.28% |        1626      0.67%     98.96% |        2523      1.04%    100.00%
system.ruby.L1Cache_Controller.E.L0_Invalidate_Own::total       241490                      
system.ruby.L1Cache_Controller.E.L0_Invalidate_Else |          74      4.59%      4.59% |         197     12.22%     16.81% |         363     22.52%     39.33% |         978     60.67%    100.00%
system.ruby.L1Cache_Controller.E.L0_Invalidate_Else::total         1612                      
system.ruby.L1Cache_Controller.EE.Inv    |          13      3.38%      3.38% |          85     22.08%     25.45% |         176     45.71%     71.17% |         111     28.83%    100.00%
system.ruby.L1Cache_Controller.EE.Inv::total          385                      
system.ruby.L1Cache_Controller.EE.L1_Replacement |      226997     98.08%     98.08% |         570      0.25%     98.32% |        1524      0.66%     98.98% |        2359      1.02%    100.00%
system.ruby.L1Cache_Controller.EE.L1_Replacement::total       231450                      
system.ruby.L1Cache_Controller.EE.Fwd_GETX |           3     18.75%     18.75% |           7     43.75%     62.50% |           4     25.00%     87.50% |           2     12.50%    100.00%
system.ruby.L1Cache_Controller.EE.Fwd_GETX::total           16                      
system.ruby.L1Cache_Controller.EE.Fwd_GETS |          32      3.02%      3.02% |          68      6.42%      9.44% |         141     13.31%     22.76% |         818     77.24%    100.00%
system.ruby.L1Cache_Controller.EE.Fwd_GETS::total         1059                      
system.ruby.L1Cache_Controller.M.WriteBack |   111073003     98.63%     98.63% |      199447      0.18%     98.81% |      248124      0.22%     99.03% |     1090416      0.97%    100.00%
system.ruby.L1Cache_Controller.M.WriteBack::total    112610990                      
system.ruby.L1Cache_Controller.M.L0_Invalidate_Own |      305202     95.92%     95.92% |        3595      1.13%     97.05% |        3366      1.06%     98.11% |        6015      1.89%    100.00%
system.ruby.L1Cache_Controller.M.L0_Invalidate_Own::total       318178                      
system.ruby.L1Cache_Controller.M.L0_Invalidate_Else |        1285     13.77%     13.77% |        2538     27.19%     40.95% |        3085     33.05%     74.00% |        2427     26.00%    100.00%
system.ruby.L1Cache_Controller.M.L0_Invalidate_Else::total         9335                      
system.ruby.L1Cache_Controller.MM.Load   |    74048195     98.64%     98.64% |      128022      0.17%     98.81% |      163938      0.22%     99.03% |      727479      0.97%    100.00%
system.ruby.L1Cache_Controller.MM.Load::total     75067634                      
system.ruby.L1Cache_Controller.MM.Store  |    34975993     98.74%     98.74% |       55593      0.16%     98.90% |       63427      0.18%     99.07% |      327723      0.93%    100.00%
system.ruby.L1Cache_Controller.MM.Store::total     35422736                      
system.ruby.L1Cache_Controller.MM.Inv    |        1010     23.12%     23.12% |        1179     26.99%     50.11% |         974     22.30%     72.41% |        1205     27.59%    100.00%
system.ruby.L1Cache_Controller.MM.Inv::total         4368                      
system.ruby.L1Cache_Controller.MM.L1_Replacement |     7971450     96.72%     96.72% |       73114      0.89%     97.60% |       68540      0.83%     98.43% |      129014      1.57%    100.00%
system.ruby.L1Cache_Controller.MM.L1_Replacement::total      8242118                      
system.ruby.L1Cache_Controller.MM.Fwd_GETX |         985     19.93%     19.93% |        1067     21.59%     41.51% |        2004     40.54%     82.06% |         887     17.94%    100.00%
system.ruby.L1Cache_Controller.MM.Fwd_GETX::total         4943                      
system.ruby.L1Cache_Controller.MM.Fwd_GETS |        5236     21.99%     21.99% |        4458     18.72%     40.72% |        6081     25.54%     66.26% |        8033     33.74%    100.00%
system.ruby.L1Cache_Controller.MM.Fwd_GETS::total        23808                      
system.ruby.L1Cache_Controller.IS.Data_Exclusive |     5850341     96.54%     96.54% |       58599      0.97%     97.51% |       52251      0.86%     98.37% |       98761      1.63%    100.00%
system.ruby.L1Cache_Controller.IS.Data_Exclusive::total      6059952                      
system.ruby.L1Cache_Controller.IS.DataS_fromL1 |        1641      6.60%      6.60% |        8658     34.82%     41.42% |        5773     23.22%     64.63% |        8795     35.37%    100.00%
system.ruby.L1Cache_Controller.IS.DataS_fromL1::total        24867                      
system.ruby.L1Cache_Controller.IS.Data_all_Acks |      675124     78.93%     78.93% |       60587      7.08%     86.01% |       61197      7.15%     93.17% |       58421      6.83%    100.00%
system.ruby.L1Cache_Controller.IS.Data_all_Acks::total       855329                      
system.ruby.L1Cache_Controller.IM.Data   |        2888     45.99%     45.99% |        1058     16.85%     62.83% |        1251     19.92%     82.75% |        1083     17.25%    100.00%
system.ruby.L1Cache_Controller.IM.Data::total         6280                      
system.ruby.L1Cache_Controller.IM.Data_all_Acks |     2346671     96.69%     96.69% |       17785      0.73%     97.43% |       22281      0.92%     98.34% |       40182      1.66%    100.00%
system.ruby.L1Cache_Controller.IM.Data_all_Acks::total      2426919                      
system.ruby.L1Cache_Controller.SM.Inv    |           0      0.00%      0.00% |           0      0.00%      0.00% |           1    100.00%    100.00% |           0      0.00%    100.00%
system.ruby.L1Cache_Controller.SM.Inv::total            1                      
system.ruby.L1Cache_Controller.SM.Ack    |       19535     52.80%     52.80% |        6207     16.78%     69.57% |        6669     18.02%     87.60% |        4589     12.40%    100.00%
system.ruby.L1Cache_Controller.SM.Ack::total        37000                      
system.ruby.L1Cache_Controller.SM.Ack_all |        8624     40.70%     40.70% |        4181     19.73%     60.43% |        4920     23.22%     83.65% |        3464     16.35%    100.00%
system.ruby.L1Cache_Controller.SM.Ack_all::total        21189                      
system.ruby.L1Cache_Controller.M_I.WB_Ack |     8198447     96.75%     96.75% |       73684      0.87%     97.62% |       70064      0.83%     98.45% |      131373      1.55%    100.00%
system.ruby.L1Cache_Controller.M_I.WB_Ack::total      8473568                      
system.ruby.L1Cache_Controller.S_IL0.Store |           0      0.00%      0.00% |           0      0.00%      0.00% |           1    100.00%    100.00% |           0      0.00%    100.00%
system.ruby.L1Cache_Controller.S_IL0.Store::total            1                      
system.ruby.L1Cache_Controller.S_IL0.L0_Invalidate_Own |      670843     78.90%     78.90% |       59669      7.02%     85.92% |       57463      6.76%     92.68% |       62277      7.32%    100.00%
system.ruby.L1Cache_Controller.S_IL0.L0_Invalidate_Own::total       850252                      
system.ruby.L1Cache_Controller.S_IL0.L0_Invalidate_Else |         401      2.07%      2.07% |        7670     39.61%     41.68% |        7428     38.36%     80.04% |        3866     19.96%    100.00%
system.ruby.L1Cache_Controller.S_IL0.L0_Invalidate_Else::total        19365                      
system.ruby.L1Cache_Controller.S_IL0.L0_Ack |      671244     77.19%     77.19% |       67339      7.74%     84.93% |       64891      7.46%     92.39% |       66143      7.61%    100.00%
system.ruby.L1Cache_Controller.S_IL0.L0_Ack::total       869617                      
system.ruby.L1Cache_Controller.E_IL0.L0_DataAck |        9687     95.05%     95.05% |         150      1.47%     96.52% |         144      1.41%     97.93% |         211      2.07%    100.00%
system.ruby.L1Cache_Controller.E_IL0.L0_DataAck::total        10192                      
system.ruby.L1Cache_Controller.E_IL0.L0_Invalidate_Own |      236658     98.00%     98.00% |         683      0.28%     98.28% |        1626      0.67%     98.96% |        2523      1.04%    100.00%
system.ruby.L1Cache_Controller.E_IL0.L0_Invalidate_Own::total       241490                      
system.ruby.L1Cache_Controller.E_IL0.L0_Invalidate_Else |          74      4.59%      4.59% |         197     12.22%     16.81% |         363     22.52%     39.33% |         978     60.67%    100.00%
system.ruby.L1Cache_Controller.E_IL0.L0_Invalidate_Else::total         1612                      
system.ruby.L1Cache_Controller.E_IL0.L0_Ack |      227045     97.48%     97.48% |         730      0.31%     97.80% |        1845      0.79%     98.59% |        3290      1.41%    100.00%
system.ruby.L1Cache_Controller.E_IL0.L0_Ack::total       232910                      
system.ruby.L1Cache_Controller.M_IL0.L0_DataAck |       83197     86.05%     86.05% |        4256      4.40%     90.45% |        4726      4.89%     95.34% |        4508      4.66%    100.00%
system.ruby.L1Cache_Controller.M_IL0.L0_DataAck::total        96687                      
system.ruby.L1Cache_Controller.M_IL0.L0_Invalidate_Own |      305202     95.92%     95.92% |        3595      1.13%     97.05% |        3366      1.06%     98.11% |        6015      1.89%    100.00%
system.ruby.L1Cache_Controller.M_IL0.L0_Invalidate_Own::total       318178                      
system.ruby.L1Cache_Controller.M_IL0.L0_Invalidate_Else |        1285     13.77%     13.77% |        2538     27.19%     40.95% |        3085     33.05%     74.00% |        2427     26.00%    100.00%
system.ruby.L1Cache_Controller.M_IL0.L0_Invalidate_Else::total         9335                      
system.ruby.L1Cache_Controller.M_IL0.L0_Ack |      223290     96.74%     96.74% |        1877      0.81%     97.55% |        1725      0.75%     98.30% |        3934      1.70%    100.00%
system.ruby.L1Cache_Controller.M_IL0.L0_Ack::total       230826                      
system.ruby.L2Cache_Controller.L1_GETS        6940606      0.00%      0.00%
system.ruby.L2Cache_Controller.L1_GETX        2433212      0.00%      0.00%
system.ruby.L2Cache_Controller.L1_UPGRADE        14910      0.00%      0.00%
system.ruby.L2Cache_Controller.L1_PUTX        8473568      0.00%      0.00%
system.ruby.L2Cache_Controller.L2_Replacement        36948      0.00%      0.00%
system.ruby.L2Cache_Controller.L2_Replacement_clean        31713      0.00%      0.00%
system.ruby.L2Cache_Controller.Mem_Data         78168      0.00%      0.00%
system.ruby.L2Cache_Controller.Mem_Ack          68714      0.00%      0.00%
system.ruby.L2Cache_Controller.WB_Data          14985      0.00%      0.00%
system.ruby.L2Cache_Controller.WB_Data_clean        14250      0.00%      0.00%
system.ruby.L2Cache_Controller.Ack               5227      0.00%      0.00%
system.ruby.L2Cache_Controller.Ack_all           3401      0.00%      0.00%
system.ruby.L2Cache_Controller.Unblock          24867      0.00%      0.00%
system.ruby.L2Cache_Controller.Exclusive_Unblock      8508060      0.00%      0.00%
system.ruby.L2Cache_Controller.MEM_Inv            106      0.00%      0.00%
system.ruby.L2Cache_Controller.NP.L1_GETS        45443      0.00%      0.00%
system.ruby.L2Cache_Controller.NP.L1_GETX        32725      0.00%      0.00%
system.ruby.L2Cache_Controller.SS.L1_GETS       855318      0.00%      0.00%
system.ruby.L2Cache_Controller.SS.L1_GETX         6280      0.00%      0.00%
system.ruby.L2Cache_Controller.SS.L1_UPGRADE        14909      0.00%      0.00%
system.ruby.L2Cache_Controller.SS.L2_Replacement          590      0.00%      0.00%
system.ruby.L2Cache_Controller.SS.L2_Replacement_clean         2407      0.00%      0.00%
system.ruby.L2Cache_Controller.SS.MEM_Inv           19      0.00%      0.00%
system.ruby.L2Cache_Controller.M.L1_GETS      6014514      0.00%      0.00%
system.ruby.L2Cache_Controller.M.L1_GETX      2389235      0.00%      0.00%
system.ruby.L2Cache_Controller.M.L2_Replacement        35551      0.00%      0.00%
system.ruby.L2Cache_Controller.M.L2_Replacement_clean        25369      0.00%      0.00%
system.ruby.L2Cache_Controller.M.MEM_Inv           25      0.00%      0.00%
system.ruby.L2Cache_Controller.MT.L1_GETS        24867      0.00%      0.00%
system.ruby.L2Cache_Controller.MT.L1_GETX         4959      0.00%      0.00%
system.ruby.L2Cache_Controller.MT.L1_PUTX      8473568      0.00%      0.00%
system.ruby.L2Cache_Controller.MT.L2_Replacement          807      0.00%      0.00%
system.ruby.L2Cache_Controller.MT.L2_Replacement_clean         3937      0.00%      0.00%
system.ruby.L2Cache_Controller.MT.MEM_Inv            9      0.00%      0.00%
system.ruby.L2Cache_Controller.M_I.L1_GETX            1      0.00%      0.00%
system.ruby.L2Cache_Controller.M_I.Mem_Ack        68714      0.00%      0.00%
system.ruby.L2Cache_Controller.M_I.MEM_Inv           25      0.00%      0.00%
system.ruby.L2Cache_Controller.MT_I.WB_Data          620      0.00%      0.00%
system.ruby.L2Cache_Controller.MT_I.WB_Data_clean          187      0.00%      0.00%
system.ruby.L2Cache_Controller.MT_I.Ack_all            9      0.00%      0.00%
system.ruby.L2Cache_Controller.MT_I.MEM_Inv            9      0.00%      0.00%
system.ruby.L2Cache_Controller.MCT_I.WB_Data         1831      0.00%      0.00%
system.ruby.L2Cache_Controller.MCT_I.WB_Data_clean         1730      0.00%      0.00%
system.ruby.L2Cache_Controller.MCT_I.Ack_all          376      0.00%      0.00%
system.ruby.L2Cache_Controller.I_I.Ack           4492      0.00%      0.00%
system.ruby.L2Cache_Controller.I_I.Ack_all         2407      0.00%      0.00%
system.ruby.L2Cache_Controller.S_I.Ack            735      0.00%      0.00%
system.ruby.L2Cache_Controller.S_I.Ack_all          609      0.00%      0.00%
system.ruby.L2Cache_Controller.S_I.MEM_Inv           19      0.00%      0.00%
system.ruby.L2Cache_Controller.ISS.L1_GETS            5      0.00%      0.00%
system.ruby.L2Cache_Controller.ISS.Mem_Data        45438      0.00%      0.00%
system.ruby.L2Cache_Controller.IS.L1_GETS            1      0.00%      0.00%
system.ruby.L2Cache_Controller.IS.Mem_Data            5      0.00%      0.00%
system.ruby.L2Cache_Controller.IM.Mem_Data        32725      0.00%      0.00%
system.ruby.L2Cache_Controller.SS_MB.L1_GETS           90      0.00%      0.00%
system.ruby.L2Cache_Controller.SS_MB.L1_GETX            1      0.00%      0.00%
system.ruby.L2Cache_Controller.SS_MB.L1_UPGRADE            1      0.00%      0.00%
system.ruby.L2Cache_Controller.SS_MB.Exclusive_Unblock        21189      0.00%      0.00%
system.ruby.L2Cache_Controller.MT_MB.L1_GETS          360      0.00%      0.00%
system.ruby.L2Cache_Controller.MT_MB.L1_GETX           10      0.00%      0.00%
system.ruby.L2Cache_Controller.MT_MB.Exclusive_Unblock      8486871      0.00%      0.00%
system.ruby.L2Cache_Controller.MT_IIB.L1_GETS            8      0.00%      0.00%
system.ruby.L2Cache_Controller.MT_IIB.L1_GETX            1      0.00%      0.00%
system.ruby.L2Cache_Controller.MT_IIB.WB_Data        12532      0.00%      0.00%
system.ruby.L2Cache_Controller.MT_IIB.WB_Data_clean        12321      0.00%      0.00%
system.ruby.L2Cache_Controller.MT_IIB.Unblock           14      0.00%      0.00%
system.ruby.L2Cache_Controller.MT_IB.WB_Data            2      0.00%      0.00%
system.ruby.L2Cache_Controller.MT_IB.WB_Data_clean           12      0.00%      0.00%
system.ruby.L2Cache_Controller.MT_SB.Unblock        24853      0.00%      0.00%

---------- End Simulation Statistics   ----------
