
---------- Begin Simulation Statistics ----------
sim_seconds                                  1.660781                       # Number of seconds simulated
sim_ticks                                1660780816000                       # Number of ticks simulated
final_tick                               54000978217001                       # Number of ticks from beginning of simulation (restored from checkpoints and never reset)
sim_freq                                 1000000000000                       # Frequency of simulated ticks
host_inst_rate                                 110355                       # Simulator instruction rate (inst/s)
host_op_rate                                   164411                       # Simulator op (including micro ops) rate (op/s)
host_tick_rate                              252904297                       # Simulator tick rate (ticks/s)
host_mem_usage                                1792232                       # Number of bytes of host memory used
host_seconds                                  6566.87                       # Real time elapsed on the host
sim_insts                                   724682676                       # Number of instructions simulated
sim_ops                                    1079662413                       # Number of ops (including micro ops) simulated
system.voltage_domain.voltage                       1                       # Voltage in Volts
system.clk_domain.clock                          1000                       # Clock period in ticks
system.mem_ctrls.bytes_read::ruby.dir_cntrl0    374451520                       # Number of bytes read from this memory
system.mem_ctrls.bytes_read::total          374451520                       # Number of bytes read from this memory
system.mem_ctrls.bytes_written::ruby.dir_cntrl0    170297088                       # Number of bytes written to this memory
system.mem_ctrls.bytes_written::total       170297088                       # Number of bytes written to this memory
system.mem_ctrls.num_reads::ruby.dir_cntrl0      5850805                       # Number of read requests responded to by this memory
system.mem_ctrls.num_reads::total             5850805                       # Number of read requests responded to by this memory
system.mem_ctrls.num_writes::ruby.dir_cntrl0      2660892                       # Number of write requests responded to by this memory
system.mem_ctrls.num_writes::total            2660892                       # Number of write requests responded to by this memory
system.mem_ctrls.bw_read::ruby.dir_cntrl0    225467152                       # Total read bandwidth from this memory (bytes/s)
system.mem_ctrls.bw_read::total             225467152                       # Total read bandwidth from this memory (bytes/s)
system.mem_ctrls.bw_write::ruby.dir_cntrl0    102540375                       # Write bandwidth from this memory (bytes/s)
system.mem_ctrls.bw_write::total            102540375                       # Write bandwidth from this memory (bytes/s)
system.mem_ctrls.bw_total::ruby.dir_cntrl0    328007527                       # Total bandwidth to/from this memory (bytes/s)
system.mem_ctrls.bw_total::total            328007527                       # Total bandwidth to/from this memory (bytes/s)
system.mem_ctrls.readReqs                     5850805                       # Number of read requests accepted
system.mem_ctrls.writeReqs                    2660892                       # Number of write requests accepted
system.mem_ctrls.readBursts                   5850805                       # Number of DRAM read bursts, including those serviced by the write queue
system.mem_ctrls.writeBursts                  2660892                       # Number of DRAM write bursts, including those merged in the write queue
system.mem_ctrls.bytesReadDRAM              374320320                       # Total number of bytes read from DRAM
system.mem_ctrls.bytesReadWrQ                  131200                       # Total number of bytes read from write queue
system.mem_ctrls.bytesWritten               170279104                       # Total number of bytes written to DRAM
system.mem_ctrls.bytesReadSys               374451520                       # Total read bytes from the system interface side
system.mem_ctrls.bytesWrittenSys            170297088                       # Total written bytes from the system interface side
system.mem_ctrls.servicedByWrQ                   2050                       # Number of DRAM read bursts serviced by the write queue
system.mem_ctrls.mergedWrBursts                   270                       # Number of DRAM write bursts merged with an existing one
system.mem_ctrls.neitherReadNorWriteReqs            0                       # Number of requests that are neither read nor write
system.mem_ctrls.perBankRdBursts::0            366028                       # Per bank write bursts
system.mem_ctrls.perBankRdBursts::1            364768                       # Per bank write bursts
system.mem_ctrls.perBankRdBursts::2            365720                       # Per bank write bursts
system.mem_ctrls.perBankRdBursts::3            365858                       # Per bank write bursts
system.mem_ctrls.perBankRdBursts::4            367526                       # Per bank write bursts
system.mem_ctrls.perBankRdBursts::5            364852                       # Per bank write bursts
system.mem_ctrls.perBankRdBursts::6            368983                       # Per bank write bursts
system.mem_ctrls.perBankRdBursts::7            365441                       # Per bank write bursts
system.mem_ctrls.perBankRdBursts::8            365269                       # Per bank write bursts
system.mem_ctrls.perBankRdBursts::9            364903                       # Per bank write bursts
system.mem_ctrls.perBankRdBursts::10           363665                       # Per bank write bursts
system.mem_ctrls.perBankRdBursts::11           366577                       # Per bank write bursts
system.mem_ctrls.perBankRdBursts::12           364975                       # Per bank write bursts
system.mem_ctrls.perBankRdBursts::13           363572                       # Per bank write bursts
system.mem_ctrls.perBankRdBursts::14           363789                       # Per bank write bursts
system.mem_ctrls.perBankRdBursts::15           366829                       # Per bank write bursts
system.mem_ctrls.perBankWrBursts::0            166179                       # Per bank write bursts
system.mem_ctrls.perBankWrBursts::1            165953                       # Per bank write bursts
system.mem_ctrls.perBankWrBursts::2            166174                       # Per bank write bursts
system.mem_ctrls.perBankWrBursts::3            166130                       # Per bank write bursts
system.mem_ctrls.perBankWrBursts::4            167187                       # Per bank write bursts
system.mem_ctrls.perBankWrBursts::5            165880                       # Per bank write bursts
system.mem_ctrls.perBankWrBursts::6            168852                       # Per bank write bursts
system.mem_ctrls.perBankWrBursts::7            166437                       # Per bank write bursts
system.mem_ctrls.perBankWrBursts::8            166729                       # Per bank write bursts
system.mem_ctrls.perBankWrBursts::9            166370                       # Per bank write bursts
system.mem_ctrls.perBankWrBursts::10           164967                       # Per bank write bursts
system.mem_ctrls.perBankWrBursts::11           166828                       # Per bank write bursts
system.mem_ctrls.perBankWrBursts::12           166142                       # Per bank write bursts
system.mem_ctrls.perBankWrBursts::13           164880                       # Per bank write bursts
system.mem_ctrls.perBankWrBursts::14           165113                       # Per bank write bursts
system.mem_ctrls.perBankWrBursts::15           166790                       # Per bank write bursts
system.mem_ctrls.numRdRetry                         0                       # Number of times read queue was full causing retry
system.mem_ctrls.numWrRetry                         0                       # Number of times write queue was full causing retry
system.mem_ctrls.totGap                  1660780751000                       # Total gap between requests
system.mem_ctrls.readPktSize::0                     0                       # Read request sizes (log2)
system.mem_ctrls.readPktSize::1                     0                       # Read request sizes (log2)
system.mem_ctrls.readPktSize::2                     0                       # Read request sizes (log2)
system.mem_ctrls.readPktSize::3                     0                       # Read request sizes (log2)
system.mem_ctrls.readPktSize::4                     0                       # Read request sizes (log2)
system.mem_ctrls.readPktSize::5                     0                       # Read request sizes (log2)
system.mem_ctrls.readPktSize::6               5850805                       # Read request sizes (log2)
system.mem_ctrls.writePktSize::0                    0                       # Write request sizes (log2)
system.mem_ctrls.writePktSize::1                    0                       # Write request sizes (log2)
system.mem_ctrls.writePktSize::2                    0                       # Write request sizes (log2)
system.mem_ctrls.writePktSize::3                    0                       # Write request sizes (log2)
system.mem_ctrls.writePktSize::4                    0                       # Write request sizes (log2)
system.mem_ctrls.writePktSize::5                    0                       # Write request sizes (log2)
system.mem_ctrls.writePktSize::6              2660892                       # Write request sizes (log2)
system.mem_ctrls.rdQLenPdf::0                 5848129                       # What read queue length does an incoming req see
system.mem_ctrls.rdQLenPdf::1                     626                       # What read queue length does an incoming req see
system.mem_ctrls.rdQLenPdf::2                       0                       # What read queue length does an incoming req see
system.mem_ctrls.rdQLenPdf::3                       0                       # What read queue length does an incoming req see
system.mem_ctrls.rdQLenPdf::4                       0                       # What read queue length does an incoming req see
system.mem_ctrls.rdQLenPdf::5                       0                       # What read queue length does an incoming req see
system.mem_ctrls.rdQLenPdf::6                       0                       # What read queue length does an incoming req see
system.mem_ctrls.rdQLenPdf::7                       0                       # What read queue length does an incoming req see
system.mem_ctrls.rdQLenPdf::8                       0                       # What read queue length does an incoming req see
system.mem_ctrls.rdQLenPdf::9                       0                       # What read queue length does an incoming req see
system.mem_ctrls.rdQLenPdf::10                      0                       # What read queue length does an incoming req see
system.mem_ctrls.rdQLenPdf::11                      0                       # What read queue length does an incoming req see
system.mem_ctrls.rdQLenPdf::12                      0                       # What read queue length does an incoming req see
system.mem_ctrls.rdQLenPdf::13                      0                       # What read queue length does an incoming req see
system.mem_ctrls.rdQLenPdf::14                      0                       # What read queue length does an incoming req see
system.mem_ctrls.rdQLenPdf::15                      0                       # What read queue length does an incoming req see
system.mem_ctrls.rdQLenPdf::16                      0                       # What read queue length does an incoming req see
system.mem_ctrls.rdQLenPdf::17                      0                       # What read queue length does an incoming req see
system.mem_ctrls.rdQLenPdf::18                      0                       # What read queue length does an incoming req see
system.mem_ctrls.rdQLenPdf::19                      0                       # What read queue length does an incoming req see
system.mem_ctrls.rdQLenPdf::20                      0                       # What read queue length does an incoming req see
system.mem_ctrls.rdQLenPdf::21                      0                       # What read queue length does an incoming req see
system.mem_ctrls.rdQLenPdf::22                      0                       # What read queue length does an incoming req see
system.mem_ctrls.rdQLenPdf::23                      0                       # What read queue length does an incoming req see
system.mem_ctrls.rdQLenPdf::24                      0                       # What read queue length does an incoming req see
system.mem_ctrls.rdQLenPdf::25                      0                       # What read queue length does an incoming req see
system.mem_ctrls.rdQLenPdf::26                      0                       # What read queue length does an incoming req see
system.mem_ctrls.rdQLenPdf::27                      0                       # What read queue length does an incoming req see
system.mem_ctrls.rdQLenPdf::28                      0                       # What read queue length does an incoming req see
system.mem_ctrls.rdQLenPdf::29                      0                       # What read queue length does an incoming req see
system.mem_ctrls.rdQLenPdf::30                      0                       # What read queue length does an incoming req see
system.mem_ctrls.rdQLenPdf::31                      0                       # What read queue length does an incoming req see
system.mem_ctrls.wrQLenPdf::0                       0                       # What write queue length does an incoming req see
system.mem_ctrls.wrQLenPdf::1                       0                       # What write queue length does an incoming req see
system.mem_ctrls.wrQLenPdf::2                       0                       # What write queue length does an incoming req see
system.mem_ctrls.wrQLenPdf::3                       0                       # What write queue length does an incoming req see
system.mem_ctrls.wrQLenPdf::4                       0                       # What write queue length does an incoming req see
system.mem_ctrls.wrQLenPdf::5                       0                       # What write queue length does an incoming req see
system.mem_ctrls.wrQLenPdf::6                       0                       # What write queue length does an incoming req see
system.mem_ctrls.wrQLenPdf::7                       0                       # What write queue length does an incoming req see
system.mem_ctrls.wrQLenPdf::8                       0                       # What write queue length does an incoming req see
system.mem_ctrls.wrQLenPdf::9                       0                       # What write queue length does an incoming req see
system.mem_ctrls.wrQLenPdf::10                      0                       # What write queue length does an incoming req see
system.mem_ctrls.wrQLenPdf::11                      0                       # What write queue length does an incoming req see
system.mem_ctrls.wrQLenPdf::12                      0                       # What write queue length does an incoming req see
system.mem_ctrls.wrQLenPdf::13                      0                       # What write queue length does an incoming req see
system.mem_ctrls.wrQLenPdf::14                      0                       # What write queue length does an incoming req see
system.mem_ctrls.wrQLenPdf::15                  47585                       # What write queue length does an incoming req see
system.mem_ctrls.wrQLenPdf::16                  58247                       # What write queue length does an incoming req see
system.mem_ctrls.wrQLenPdf::17                 126341                       # What write queue length does an incoming req see
system.mem_ctrls.wrQLenPdf::18                 158412                       # What write queue length does an incoming req see
system.mem_ctrls.wrQLenPdf::19                 162271                       # What write queue length does an incoming req see
system.mem_ctrls.wrQLenPdf::20                 163314                       # What write queue length does an incoming req see
system.mem_ctrls.wrQLenPdf::21                 163861                       # What write queue length does an incoming req see
system.mem_ctrls.wrQLenPdf::22                 164179                       # What write queue length does an incoming req see
system.mem_ctrls.wrQLenPdf::23                 163979                       # What write queue length does an incoming req see
system.mem_ctrls.wrQLenPdf::24                 164239                       # What write queue length does an incoming req see
system.mem_ctrls.wrQLenPdf::25                 163622                       # What write queue length does an incoming req see
system.mem_ctrls.wrQLenPdf::26                 163044                       # What write queue length does an incoming req see
system.mem_ctrls.wrQLenPdf::27                 162133                       # What write queue length does an incoming req see
system.mem_ctrls.wrQLenPdf::28                 161160                       # What write queue length does an incoming req see
system.mem_ctrls.wrQLenPdf::29                 160832                       # What write queue length does an incoming req see
system.mem_ctrls.wrQLenPdf::30                 159192                       # What write queue length does an incoming req see
system.mem_ctrls.wrQLenPdf::31                 158547                       # What write queue length does an incoming req see
system.mem_ctrls.wrQLenPdf::32                 158663                       # What write queue length does an incoming req see
system.mem_ctrls.wrQLenPdf::33                    673                       # What write queue length does an incoming req see
system.mem_ctrls.wrQLenPdf::34                    169                       # What write queue length does an incoming req see
system.mem_ctrls.wrQLenPdf::35                     64                       # What write queue length does an incoming req see
system.mem_ctrls.wrQLenPdf::36                     31                       # What write queue length does an incoming req see
system.mem_ctrls.wrQLenPdf::37                     17                       # What write queue length does an incoming req see
system.mem_ctrls.wrQLenPdf::38                     11                       # What write queue length does an incoming req see
system.mem_ctrls.wrQLenPdf::39                      9                       # What write queue length does an incoming req see
system.mem_ctrls.wrQLenPdf::40                      9                       # What write queue length does an incoming req see
system.mem_ctrls.wrQLenPdf::41                      6                       # What write queue length does an incoming req see
system.mem_ctrls.wrQLenPdf::42                      4                       # What write queue length does an incoming req see
system.mem_ctrls.wrQLenPdf::43                      3                       # What write queue length does an incoming req see
system.mem_ctrls.wrQLenPdf::44                      3                       # What write queue length does an incoming req see
system.mem_ctrls.wrQLenPdf::45                      2                       # What write queue length does an incoming req see
system.mem_ctrls.wrQLenPdf::46                      0                       # What write queue length does an incoming req see
system.mem_ctrls.wrQLenPdf::47                      0                       # What write queue length does an incoming req see
system.mem_ctrls.wrQLenPdf::48                      0                       # What write queue length does an incoming req see
system.mem_ctrls.wrQLenPdf::49                      0                       # What write queue length does an incoming req see
system.mem_ctrls.wrQLenPdf::50                      0                       # What write queue length does an incoming req see
system.mem_ctrls.wrQLenPdf::51                      0                       # What write queue length does an incoming req see
system.mem_ctrls.wrQLenPdf::52                      0                       # What write queue length does an incoming req see
system.mem_ctrls.wrQLenPdf::53                      0                       # What write queue length does an incoming req see
system.mem_ctrls.wrQLenPdf::54                      0                       # What write queue length does an incoming req see
system.mem_ctrls.wrQLenPdf::55                      0                       # What write queue length does an incoming req see
system.mem_ctrls.wrQLenPdf::56                      0                       # What write queue length does an incoming req see
system.mem_ctrls.wrQLenPdf::57                      0                       # What write queue length does an incoming req see
system.mem_ctrls.wrQLenPdf::58                      0                       # What write queue length does an incoming req see
system.mem_ctrls.wrQLenPdf::59                      0                       # What write queue length does an incoming req see
system.mem_ctrls.wrQLenPdf::60                      0                       # What write queue length does an incoming req see
system.mem_ctrls.wrQLenPdf::61                      0                       # What write queue length does an incoming req see
system.mem_ctrls.wrQLenPdf::62                      0                       # What write queue length does an incoming req see
system.mem_ctrls.wrQLenPdf::63                      0                       # What write queue length does an incoming req see
system.mem_ctrls.bytesPerActivate::samples      3697376                       # Bytes accessed per row activation
system.mem_ctrls.bytesPerActivate::mean    147.293579                       # Bytes accessed per row activation
system.mem_ctrls.bytesPerActivate::gmean    89.525739                       # Bytes accessed per row activation
system.mem_ctrls.bytesPerActivate::stdev   232.032791                       # Bytes accessed per row activation
system.mem_ctrls.bytesPerActivate::0-127      2980756     80.62%     80.62% # Bytes accessed per row activation
system.mem_ctrls.bytesPerActivate::128-255       264593      7.16%     87.77% # Bytes accessed per row activation
system.mem_ctrls.bytesPerActivate::256-383        93610      2.53%     90.31% # Bytes accessed per row activation
system.mem_ctrls.bytesPerActivate::384-511        60010      1.62%     91.93% # Bytes accessed per row activation
system.mem_ctrls.bytesPerActivate::512-639        43137      1.17%     93.10% # Bytes accessed per row activation
system.mem_ctrls.bytesPerActivate::640-767        33329      0.90%     94.00% # Bytes accessed per row activation
system.mem_ctrls.bytesPerActivate::768-895        32541      0.88%     94.88% # Bytes accessed per row activation
system.mem_ctrls.bytesPerActivate::896-1023        19005      0.51%     95.39% # Bytes accessed per row activation
system.mem_ctrls.bytesPerActivate::1024-1151       170395      4.61%    100.00% # Bytes accessed per row activation
system.mem_ctrls.bytesPerActivate::total      3697376                       # Bytes accessed per row activation
system.mem_ctrls.rdPerTurnAround::samples       158394                       # Reads before turning the bus around for writes
system.mem_ctrls.rdPerTurnAround::mean      37.020241                       # Reads before turning the bus around for writes
system.mem_ctrls.rdPerTurnAround::stdev    778.741625                       # Reads before turning the bus around for writes
system.mem_ctrls.rdPerTurnAround::0-4095       158361     99.98%     99.98% # Reads before turning the bus around for writes
system.mem_ctrls.rdPerTurnAround::4096-8191            3      0.00%     99.98% # Reads before turning the bus around for writes
system.mem_ctrls.rdPerTurnAround::8192-12287            2      0.00%     99.98% # Reads before turning the bus around for writes
system.mem_ctrls.rdPerTurnAround::12288-16383            3      0.00%     99.98% # Reads before turning the bus around for writes
system.mem_ctrls.rdPerTurnAround::16384-20479            2      0.00%     99.99% # Reads before turning the bus around for writes
system.mem_ctrls.rdPerTurnAround::24576-28671            1      0.00%     99.99% # Reads before turning the bus around for writes
system.mem_ctrls.rdPerTurnAround::28672-32767            5      0.00%     99.99% # Reads before turning the bus around for writes
system.mem_ctrls.rdPerTurnAround::36864-40959            1      0.00%     99.99% # Reads before turning the bus around for writes
system.mem_ctrls.rdPerTurnAround::45056-49151            1      0.00%     99.99% # Reads before turning the bus around for writes
system.mem_ctrls.rdPerTurnAround::49152-53247            1      0.00%     99.99% # Reads before turning the bus around for writes
system.mem_ctrls.rdPerTurnAround::57344-61439            5      0.00%     99.99% # Reads before turning the bus around for writes
system.mem_ctrls.rdPerTurnAround::61440-65535            5      0.00%    100.00% # Reads before turning the bus around for writes
system.mem_ctrls.rdPerTurnAround::81920-86015            2      0.00%    100.00% # Reads before turning the bus around for writes
system.mem_ctrls.rdPerTurnAround::118784-122879            1      0.00%    100.00% # Reads before turning the bus around for writes
system.mem_ctrls.rdPerTurnAround::126976-131071            1      0.00%    100.00% # Reads before turning the bus around for writes
system.mem_ctrls.rdPerTurnAround::total        158394                       # Reads before turning the bus around for writes
system.mem_ctrls.wrPerTurnAround::samples       158394                       # Writes before turning the bus around for reads
system.mem_ctrls.wrPerTurnAround::mean      16.797423                       # Writes before turning the bus around for reads
system.mem_ctrls.wrPerTurnAround::gmean     16.760183                       # Writes before turning the bus around for reads
system.mem_ctrls.wrPerTurnAround::stdev      1.154100                       # Writes before turning the bus around for reads
system.mem_ctrls.wrPerTurnAround::16            98806     62.38%     62.38% # Writes before turning the bus around for reads
system.mem_ctrls.wrPerTurnAround::17             7950      5.02%     67.40% # Writes before turning the bus around for reads
system.mem_ctrls.wrPerTurnAround::18            42201     26.64%     94.04% # Writes before turning the bus around for reads
system.mem_ctrls.wrPerTurnAround::19             6195      3.91%     97.95% # Writes before turning the bus around for reads
system.mem_ctrls.wrPerTurnAround::20             1979      1.25%     99.20% # Writes before turning the bus around for reads
system.mem_ctrls.wrPerTurnAround::21              708      0.45%     99.65% # Writes before turning the bus around for reads
system.mem_ctrls.wrPerTurnAround::22              291      0.18%     99.83% # Writes before turning the bus around for reads
system.mem_ctrls.wrPerTurnAround::23              143      0.09%     99.92% # Writes before turning the bus around for reads
system.mem_ctrls.wrPerTurnAround::24               59      0.04%     99.96% # Writes before turning the bus around for reads
system.mem_ctrls.wrPerTurnAround::25               29      0.02%     99.98% # Writes before turning the bus around for reads
system.mem_ctrls.wrPerTurnAround::26               16      0.01%     99.99% # Writes before turning the bus around for reads
system.mem_ctrls.wrPerTurnAround::27                2      0.00%     99.99% # Writes before turning the bus around for reads
system.mem_ctrls.wrPerTurnAround::28                1      0.00%     99.99% # Writes before turning the bus around for reads
system.mem_ctrls.wrPerTurnAround::29                1      0.00%     99.99% # Writes before turning the bus around for reads
system.mem_ctrls.wrPerTurnAround::30                1      0.00%     99.99% # Writes before turning the bus around for reads
system.mem_ctrls.wrPerTurnAround::31                3      0.00%     99.99% # Writes before turning the bus around for reads
system.mem_ctrls.wrPerTurnAround::32                2      0.00%    100.00% # Writes before turning the bus around for reads
system.mem_ctrls.wrPerTurnAround::33                2      0.00%    100.00% # Writes before turning the bus around for reads
system.mem_ctrls.wrPerTurnAround::34                1      0.00%    100.00% # Writes before turning the bus around for reads
system.mem_ctrls.wrPerTurnAround::36                2      0.00%    100.00% # Writes before turning the bus around for reads
system.mem_ctrls.wrPerTurnAround::37                1      0.00%    100.00% # Writes before turning the bus around for reads
system.mem_ctrls.wrPerTurnAround::39                1      0.00%    100.00% # Writes before turning the bus around for reads
system.mem_ctrls.wrPerTurnAround::total        158394                       # Writes before turning the bus around for reads
system.mem_ctrls.totQLat                  77176339249                       # Total ticks spent queuing
system.mem_ctrls.totMemAccLat            186840495499                       # Total ticks spent from burst creation until serviced by the DRAM
system.mem_ctrls.totBusLat                29243775000                       # Total ticks spent in databus transfers
system.mem_ctrls.avgQLat                     13195.34                       # Average queueing delay per DRAM burst
system.mem_ctrls.avgBusLat                    5000.00                       # Average bus latency per DRAM burst
system.mem_ctrls.avgMemAccLat                31945.34                       # Average memory access latency per DRAM burst
system.mem_ctrls.avgRdBW                       225.39                       # Average DRAM read bandwidth in MiByte/s
system.mem_ctrls.avgWrBW                       102.53                       # Average achieved write bandwidth in MiByte/s
system.mem_ctrls.avgRdBWSys                    225.47                       # Average system read bandwidth in MiByte/s
system.mem_ctrls.avgWrBWSys                    102.54                       # Average system write bandwidth in MiByte/s
system.mem_ctrls.peakBW                      12800.00                       # Theoretical peak bandwidth in MiByte/s
system.mem_ctrls.busUtil                         2.56                       # Data bus utilization in percentage
system.mem_ctrls.busUtilRead                     1.76                       # Data bus utilization in percentage for reads
system.mem_ctrls.busUtilWrite                    0.80                       # Data bus utilization in percentage for writes
system.mem_ctrls.avgRdQLen                       1.00                       # Average read queue length when enqueuing
system.mem_ctrls.avgWrQLen                      25.04                       # Average write queue length when enqueuing
system.mem_ctrls.readRowHits                  3779744                       # Number of row buffer hits during reads
system.mem_ctrls.writeRowHits                 1032247                       # Number of row buffer hits during writes
system.mem_ctrls.readRowHitRate                 64.62                       # Row buffer hit rate for reads
system.mem_ctrls.writeRowHitRate                38.80                       # Row buffer hit rate for writes
system.mem_ctrls.avgGap                     195117.47                       # Average gap between requests
system.mem_ctrls.pageHitRate                    56.55                       # Row buffer hit rate, read and write combined
system.mem_ctrls_0.actEnergy              14048128080                       # Energy for activate commands per rank (pJ)
system.mem_ctrls_0.preEnergy               7665149250                       # Energy for precharge commands per rank (pJ)
system.mem_ctrls_0.readEnergy             22914925800                       # Energy for read commands per rank (pJ)
system.mem_ctrls_0.writeEnergy             8636492160                       # Energy for write commands per rank (pJ)
system.mem_ctrls_0.refreshEnergy         108687917520                       # Energy for refresh commands per rank (pJ)
system.mem_ctrls_0.actBackEnergy         533939007285                       # Energy for active background per rank (pJ)
system.mem_ctrls_0.preBackEnergy         530065000500                       # Energy for precharge background per rank (pJ)
system.mem_ctrls_0.totalEnergy           1225956620595                       # Total energy per rank (pJ)
system.mem_ctrls_0.averagePower            736.728757                       # Core power per rank (mW)
system.mem_ctrls_0.memoryStateTime::IDLE 876944938000                       # Time in different power states
system.mem_ctrls_0.memoryStateTime::REF   55456960000                       # Time in different power states
system.mem_ctrls_0.memoryStateTime::PRE_PDN            0                       # Time in different power states
system.mem_ctrls_0.memoryStateTime::ACT  728379502500                       # Time in different power states
system.mem_ctrls_0.memoryStateTime::ACT_PDN            0                       # Time in different power states
system.mem_ctrls_1.actEnergy              13932611280                       # Energy for activate commands per rank (pJ)
system.mem_ctrls_1.preEnergy               7602119250                       # Energy for precharge commands per rank (pJ)
system.mem_ctrls_1.readEnergy             22825319400                       # Energy for read commands per rank (pJ)
system.mem_ctrls_1.writeEnergy             8604267120                       # Energy for write commands per rank (pJ)
system.mem_ctrls_1.refreshEnergy         108687917520                       # Energy for refresh commands per rank (pJ)
system.mem_ctrls_1.actBackEnergy         533870867205                       # Energy for active background per rank (pJ)
system.mem_ctrls_1.preBackEnergy         530124772500                       # Energy for precharge background per rank (pJ)
system.mem_ctrls_1.totalEnergy           1225647874275                       # Total energy per rank (pJ)
system.mem_ctrls_1.averagePower            736.543219                       # Core power per rank (mW)
system.mem_ctrls_1.memoryStateTime::IDLE 876843401000                       # Time in different power states
system.mem_ctrls_1.memoryStateTime::REF   55456960000                       # Time in different power states
system.mem_ctrls_1.memoryStateTime::PRE_PDN            0                       # Time in different power states
system.mem_ctrls_1.memoryStateTime::ACT  728483145250                       # Time in different power states
system.mem_ctrls_1.memoryStateTime::ACT_PDN            0                       # Time in different power states
system.cpu_voltage_domain.voltage                   1                       # Voltage in Volts
system.cpu_clk_domain.clock                       500                       # Clock period in ticks
system.cpu0.apic_clk_domain.clock                8000                       # Clock period in ticks
system.cpu0.numCycles                      3325116269                       # number of cpu cycles simulated
system.cpu0.numWorkItemsStarted                     0                       # number of work items this cpu started
system.cpu0.numWorkItemsCompleted                   0                       # number of work items this cpu completed
system.cpu0.kern.inst.arm                           0                       # number of arm instructions executed
system.cpu0.kern.inst.quiesce                       0                       # number of quiesce instructions executed
system.cpu0.committedInsts                    1370314                       # Number of instructions committed
system.cpu0.committedOps                      2978421                       # Number of ops (including micro ops) committed
system.cpu0.num_int_alu_accesses              2914287                       # Number of integer alu accesses
system.cpu0.num_fp_alu_accesses                    39                       # Number of float alu accesses
system.cpu0.num_func_calls                      87652                       # number of times a function call or return occured
system.cpu0.num_conditional_control_insts       196956                       # number of instructions that are conditional controls
system.cpu0.num_int_insts                     2914287                       # number of integer instructions
system.cpu0.num_fp_insts                           39                       # number of float instructions
system.cpu0.num_int_register_reads            5928471                       # number of times the integer registers were read
system.cpu0.num_int_register_writes           2412380                       # number of times the integer registers were written
system.cpu0.num_fp_register_reads                  63                       # number of times the floating registers were read
system.cpu0.num_fp_register_writes                 31                       # number of times the floating registers were written
system.cpu0.num_cc_register_reads             1640396                       # number of times the CC registers were read
system.cpu0.num_cc_register_writes             890195                       # number of times the CC registers were written
system.cpu0.num_mem_refs                       705129                       # number of memory refs
system.cpu0.num_load_insts                     434383                       # Number of load instructions
system.cpu0.num_store_insts                    270746                       # Number of store instructions
system.cpu0.num_idle_cycles              3319220059.796838                       # Number of idle cycles
system.cpu0.num_busy_cycles              5896209.203162                       # Number of busy cycles
system.cpu0.not_idle_fraction                0.001773                       # Percentage of non-idle cycles
system.cpu0.idle_fraction                    0.998227                       # Percentage of idle cycles
system.cpu0.Branches                           311448                       # Number of branches fetched
system.cpu0.op_class::No_OpClass                51361      1.72%      1.72% # Class of executed instruction
system.cpu0.op_class::IntAlu                  2199340     73.84%     75.57% # Class of executed instruction
system.cpu0.op_class::IntMult                    5518      0.19%     75.75% # Class of executed instruction
system.cpu0.op_class::IntDiv                    17065      0.57%     76.32% # Class of executed instruction
system.cpu0.op_class::FloatAdd                     30      0.00%     76.33% # Class of executed instruction
system.cpu0.op_class::FloatCmp                      0      0.00%     76.33% # Class of executed instruction
system.cpu0.op_class::FloatCvt                      0      0.00%     76.33% # Class of executed instruction
system.cpu0.op_class::FloatMult                     0      0.00%     76.33% # Class of executed instruction
system.cpu0.op_class::FloatDiv                      0      0.00%     76.33% # Class of executed instruction
system.cpu0.op_class::FloatSqrt                     0      0.00%     76.33% # Class of executed instruction
system.cpu0.op_class::SimdAdd                       0      0.00%     76.33% # Class of executed instruction
system.cpu0.op_class::SimdAddAcc                    0      0.00%     76.33% # Class of executed instruction
system.cpu0.op_class::SimdAlu                       0      0.00%     76.33% # Class of executed instruction
system.cpu0.op_class::SimdCmp                       0      0.00%     76.33% # Class of executed instruction
system.cpu0.op_class::SimdCvt                       0      0.00%     76.33% # Class of executed instruction
system.cpu0.op_class::SimdMisc                      0      0.00%     76.33% # Class of executed instruction
system.cpu0.op_class::SimdMult                      0      0.00%     76.33% # Class of executed instruction
system.cpu0.op_class::SimdMultAcc                   0      0.00%     76.33% # Class of executed instruction
system.cpu0.op_class::SimdShift                     0      0.00%     76.33% # Class of executed instruction
system.cpu0.op_class::SimdShiftAcc                  0      0.00%     76.33% # Class of executed instruction
system.cpu0.op_class::SimdSqrt                      0      0.00%     76.33% # Class of executed instruction
system.cpu0.op_class::SimdFloatAdd                  0      0.00%     76.33% # Class of executed instruction
system.cpu0.op_class::SimdFloatAlu                  0      0.00%     76.33% # Class of executed instruction
system.cpu0.op_class::SimdFloatCmp                  0      0.00%     76.33% # Class of executed instruction
system.cpu0.op_class::SimdFloatCvt                  0      0.00%     76.33% # Class of executed instruction
system.cpu0.op_class::SimdFloatDiv                  0      0.00%     76.33% # Class of executed instruction
system.cpu0.op_class::SimdFloatMisc                 0      0.00%     76.33% # Class of executed instruction
system.cpu0.op_class::SimdFloatMult                 0      0.00%     76.33% # Class of executed instruction
system.cpu0.op_class::SimdFloatMultAcc              0      0.00%     76.33% # Class of executed instruction
system.cpu0.op_class::SimdFloatSqrt                 0      0.00%     76.33% # Class of executed instruction
system.cpu0.op_class::MemRead                  434383     14.58%     90.91% # Class of executed instruction
system.cpu0.op_class::MemWrite                 270746      9.09%    100.00% # Class of executed instruction
system.cpu0.op_class::IprAccess                     0      0.00%    100.00% # Class of executed instruction
system.cpu0.op_class::InstPrefetch                  0      0.00%    100.00% # Class of executed instruction
system.cpu0.op_class::total                   2978443                       # Class of executed instruction
system.cpu1.apic_clk_domain.clock                8000                       # Clock period in ticks
system.cpu1.numCycles                      3322981284                       # number of cpu cycles simulated
system.cpu1.numWorkItemsStarted                     0                       # number of work items this cpu started
system.cpu1.numWorkItemsCompleted                   0                       # number of work items this cpu completed
system.cpu1.kern.inst.arm                           0                       # number of arm instructions executed
system.cpu1.kern.inst.quiesce                       0                       # number of quiesce instructions executed
system.cpu1.committedInsts                  717095791                       # Number of instructions committed
system.cpu1.committedOps                   1064286661                       # Number of ops (including micro ops) committed
system.cpu1.num_int_alu_accesses            463796920                       # Number of integer alu accesses
system.cpu1.num_fp_alu_accesses             708837843                       # Number of float alu accesses
system.cpu1.num_func_calls                     896497                       # number of times a function call or return occured
system.cpu1.num_conditional_control_insts     10827004                       # number of instructions that are conditional controls
system.cpu1.num_int_insts                   463796920                       # number of integer instructions
system.cpu1.num_fp_insts                    708837843                       # number of float instructions
system.cpu1.num_int_register_reads          971682220                       # number of times the integer registers were read
system.cpu1.num_int_register_writes         343695244                       # number of times the integer registers were written
system.cpu1.num_fp_register_reads          1593836311                       # number of times the floating registers were read
system.cpu1.num_fp_register_writes          654311799                       # number of times the floating registers were written
system.cpu1.num_cc_register_reads           111593845                       # number of times the CC registers were read
system.cpu1.num_cc_register_writes          201600653                       # number of times the CC registers were written
system.cpu1.num_mem_refs                    129320298                       # number of memory refs
system.cpu1.num_load_insts                   75423749                       # Number of load instructions
system.cpu1.num_store_insts                  53896549                       # Number of store instructions
system.cpu1.num_idle_cycles              10565079.636547                       # Number of idle cycles
system.cpu1.num_busy_cycles              3312416204.363453                       # Number of busy cycles
system.cpu1.not_idle_fraction                0.996821                       # Percentage of non-idle cycles
system.cpu1.idle_fraction                    0.003179                       # Percentage of idle cycles
system.cpu1.Branches                         12013904                       # Number of branches fetched
system.cpu1.op_class::No_OpClass               312722      0.03%      0.03% # Class of executed instruction
system.cpu1.op_class::IntAlu                431262906     40.52%     40.55% # Class of executed instruction
system.cpu1.op_class::IntMult                   88657      0.01%     40.56% # Class of executed instruction
system.cpu1.op_class::IntDiv                     1804      0.00%     40.56% # Class of executed instruction
system.cpu1.op_class::FloatAdd              503316796     47.29%     87.85% # Class of executed instruction
system.cpu1.op_class::FloatCmp                      0      0.00%     87.85% # Class of executed instruction
system.cpu1.op_class::FloatCvt                      0      0.00%     87.85% # Class of executed instruction
system.cpu1.op_class::FloatMult                     0      0.00%     87.85% # Class of executed instruction
system.cpu1.op_class::FloatDiv                      0      0.00%     87.85% # Class of executed instruction
system.cpu1.op_class::FloatSqrt                     0      0.00%     87.85% # Class of executed instruction
system.cpu1.op_class::SimdAdd                       0      0.00%     87.85% # Class of executed instruction
system.cpu1.op_class::SimdAddAcc                    0      0.00%     87.85% # Class of executed instruction
system.cpu1.op_class::SimdAlu                       0      0.00%     87.85% # Class of executed instruction
system.cpu1.op_class::SimdCmp                       0      0.00%     87.85% # Class of executed instruction
system.cpu1.op_class::SimdCvt                       0      0.00%     87.85% # Class of executed instruction
system.cpu1.op_class::SimdMisc                      0      0.00%     87.85% # Class of executed instruction
system.cpu1.op_class::SimdMult                      0      0.00%     87.85% # Class of executed instruction
system.cpu1.op_class::SimdMultAcc                   0      0.00%     87.85% # Class of executed instruction
system.cpu1.op_class::SimdShift                     0      0.00%     87.85% # Class of executed instruction
system.cpu1.op_class::SimdShiftAcc                  0      0.00%     87.85% # Class of executed instruction
system.cpu1.op_class::SimdSqrt                      0      0.00%     87.85% # Class of executed instruction
system.cpu1.op_class::SimdFloatAdd                  0      0.00%     87.85% # Class of executed instruction
system.cpu1.op_class::SimdFloatAlu                  0      0.00%     87.85% # Class of executed instruction
system.cpu1.op_class::SimdFloatCmp                  0      0.00%     87.85% # Class of executed instruction
system.cpu1.op_class::SimdFloatCvt                  0      0.00%     87.85% # Class of executed instruction
system.cpu1.op_class::SimdFloatDiv                  0      0.00%     87.85% # Class of executed instruction
system.cpu1.op_class::SimdFloatMisc                 0      0.00%     87.85% # Class of executed instruction
system.cpu1.op_class::SimdFloatMult                 0      0.00%     87.85% # Class of executed instruction
system.cpu1.op_class::SimdFloatMultAcc              0      0.00%     87.85% # Class of executed instruction
system.cpu1.op_class::SimdFloatSqrt                 0      0.00%     87.85% # Class of executed instruction
system.cpu1.op_class::MemRead                75423749      7.09%     94.94% # Class of executed instruction
system.cpu1.op_class::MemWrite               53896549      5.06%    100.00% # Class of executed instruction
system.cpu1.op_class::IprAccess                     0      0.00%    100.00% # Class of executed instruction
system.cpu1.op_class::InstPrefetch                  0      0.00%    100.00% # Class of executed instruction
system.cpu1.op_class::total                1064303183                       # Class of executed instruction
system.cpu2.apic_clk_domain.clock                8000                       # Clock period in ticks
system.cpu2.numCycles                      3319466349                       # number of cpu cycles simulated
system.cpu2.numWorkItemsStarted                     0                       # number of work items this cpu started
system.cpu2.numWorkItemsCompleted                   0                       # number of work items this cpu completed
system.cpu2.kern.inst.arm                           0                       # number of arm instructions executed
system.cpu2.kern.inst.quiesce                       0                       # number of quiesce instructions executed
system.cpu2.committedInsts                    1156420                       # Number of instructions committed
system.cpu2.committedOps                      2501514                       # Number of ops (including micro ops) committed
system.cpu2.num_int_alu_accesses              2446075                       # Number of integer alu accesses
system.cpu2.num_fp_alu_accesses                     0                       # Number of float alu accesses
system.cpu2.num_func_calls                      69030                       # number of times a function call or return occured
system.cpu2.num_conditional_control_insts       175784                       # number of instructions that are conditional controls
system.cpu2.num_int_insts                     2446075                       # number of integer instructions
system.cpu2.num_fp_insts                            0                       # number of float instructions
system.cpu2.num_int_register_reads            4970898                       # number of times the integer registers were read
system.cpu2.num_int_register_writes           2030988                       # number of times the integer registers were written
system.cpu2.num_fp_register_reads                   0                       # number of times the floating registers were read
system.cpu2.num_fp_register_writes                  0                       # number of times the floating registers were written
system.cpu2.num_cc_register_reads             1409793                       # number of times the CC registers were read
system.cpu2.num_cc_register_writes             737922                       # number of times the CC registers were written
system.cpu2.num_mem_refs                       595638                       # number of memory refs
system.cpu2.num_load_insts                     370608                       # Number of load instructions
system.cpu2.num_store_insts                    225030                       # Number of store instructions
system.cpu2.num_idle_cycles              3314572087.310825                       # Number of idle cycles
system.cpu2.num_busy_cycles              4894261.689175                       # Number of busy cycles
system.cpu2.not_idle_fraction                0.001474                       # Percentage of non-idle cycles
system.cpu2.idle_fraction                    0.998526                       # Percentage of idle cycles
system.cpu2.Branches                           267322                       # Number of branches fetched
system.cpu2.op_class::No_OpClass                47458      1.90%      1.90% # Class of executed instruction
system.cpu2.op_class::IntAlu                  1836540     73.42%     75.31% # Class of executed instruction
system.cpu2.op_class::IntMult                    5005      0.20%     75.51% # Class of executed instruction
system.cpu2.op_class::IntDiv                    16877      0.67%     76.19% # Class of executed instruction
system.cpu2.op_class::FloatAdd                      0      0.00%     76.19% # Class of executed instruction
system.cpu2.op_class::FloatCmp                      0      0.00%     76.19% # Class of executed instruction
system.cpu2.op_class::FloatCvt                      0      0.00%     76.19% # Class of executed instruction
system.cpu2.op_class::FloatMult                     0      0.00%     76.19% # Class of executed instruction
system.cpu2.op_class::FloatDiv                      0      0.00%     76.19% # Class of executed instruction
system.cpu2.op_class::FloatSqrt                     0      0.00%     76.19% # Class of executed instruction
system.cpu2.op_class::SimdAdd                       0      0.00%     76.19% # Class of executed instruction
system.cpu2.op_class::SimdAddAcc                    0      0.00%     76.19% # Class of executed instruction
system.cpu2.op_class::SimdAlu                       0      0.00%     76.19% # Class of executed instruction
system.cpu2.op_class::SimdCmp                       0      0.00%     76.19% # Class of executed instruction
system.cpu2.op_class::SimdCvt                       0      0.00%     76.19% # Class of executed instruction
system.cpu2.op_class::SimdMisc                      0      0.00%     76.19% # Class of executed instruction
system.cpu2.op_class::SimdMult                      0      0.00%     76.19% # Class of executed instruction
system.cpu2.op_class::SimdMultAcc                   0      0.00%     76.19% # Class of executed instruction
system.cpu2.op_class::SimdShift                     0      0.00%     76.19% # Class of executed instruction
system.cpu2.op_class::SimdShiftAcc                  0      0.00%     76.19% # Class of executed instruction
system.cpu2.op_class::SimdSqrt                      0      0.00%     76.19% # Class of executed instruction
system.cpu2.op_class::SimdFloatAdd                  0      0.00%     76.19% # Class of executed instruction
system.cpu2.op_class::SimdFloatAlu                  0      0.00%     76.19% # Class of executed instruction
system.cpu2.op_class::SimdFloatCmp                  0      0.00%     76.19% # Class of executed instruction
system.cpu2.op_class::SimdFloatCvt                  0      0.00%     76.19% # Class of executed instruction
system.cpu2.op_class::SimdFloatDiv                  0      0.00%     76.19% # Class of executed instruction
system.cpu2.op_class::SimdFloatMisc                 0      0.00%     76.19% # Class of executed instruction
system.cpu2.op_class::SimdFloatMult                 0      0.00%     76.19% # Class of executed instruction
system.cpu2.op_class::SimdFloatMultAcc              0      0.00%     76.19% # Class of executed instruction
system.cpu2.op_class::SimdFloatSqrt                 0      0.00%     76.19% # Class of executed instruction
system.cpu2.op_class::MemRead                  370608     14.82%     91.00% # Class of executed instruction
system.cpu2.op_class::MemWrite                 225030      9.00%    100.00% # Class of executed instruction
system.cpu2.op_class::IprAccess                     0      0.00%    100.00% # Class of executed instruction
system.cpu2.op_class::InstPrefetch                  0      0.00%    100.00% # Class of executed instruction
system.cpu2.op_class::total                   2501518                       # Class of executed instruction
system.cpu3.apic_clk_domain.clock                8000                       # Clock period in ticks
system.cpu3.numCycles                      3320989925                       # number of cpu cycles simulated
system.cpu3.numWorkItemsStarted                     0                       # number of work items this cpu started
system.cpu3.numWorkItemsCompleted                   0                       # number of work items this cpu completed
system.cpu3.kern.inst.arm                           0                       # number of arm instructions executed
system.cpu3.kern.inst.quiesce                       0                       # number of quiesce instructions executed
system.cpu3.committedInsts                    3721195                       # Number of instructions committed
system.cpu3.committedOps                      7432680                       # Number of ops (including micro ops) committed
system.cpu3.num_int_alu_accesses              7299871                       # Number of integer alu accesses
system.cpu3.num_fp_alu_accesses                  1778                       # Number of float alu accesses
system.cpu3.num_func_calls                     193034                       # number of times a function call or return occured
system.cpu3.num_conditional_control_insts       629291                       # number of instructions that are conditional controls
system.cpu3.num_int_insts                     7299871                       # number of integer instructions
system.cpu3.num_fp_insts                         1778                       # number of float instructions
system.cpu3.num_int_register_reads           14517879                       # number of times the integer registers were read
system.cpu3.num_int_register_writes           5937935                       # number of times the integer registers were written
system.cpu3.num_fp_register_reads                2988                       # number of times the floating registers were read
system.cpu3.num_fp_register_writes               1416                       # number of times the floating registers were written
system.cpu3.num_cc_register_reads             4716060                       # number of times the CC registers were read
system.cpu3.num_cc_register_writes            2540446                       # number of times the CC registers were written
system.cpu3.num_mem_refs                      1677814                       # number of memory refs
system.cpu3.num_load_insts                    1089769                       # Number of load instructions
system.cpu3.num_store_insts                    588045                       # Number of store instructions
system.cpu3.num_idle_cycles              3305856416.229093                       # Number of idle cycles
system.cpu3.num_busy_cycles              15133508.770907                       # Number of busy cycles
system.cpu3.not_idle_fraction                0.004557                       # Percentage of non-idle cycles
system.cpu3.idle_fraction                    0.995443                       # Percentage of idle cycles
system.cpu3.Branches                           856143                       # Number of branches fetched
system.cpu3.op_class::No_OpClass                51778      0.70%      0.70% # Class of executed instruction
system.cpu3.op_class::IntAlu                  5678442     76.40%     77.09% # Class of executed instruction
system.cpu3.op_class::IntMult                    6072      0.08%     77.18% # Class of executed instruction
system.cpu3.op_class::IntDiv                    17320      0.23%     77.41% # Class of executed instruction
system.cpu3.op_class::FloatAdd                   1344      0.02%     77.43% # Class of executed instruction
system.cpu3.op_class::FloatCmp                      0      0.00%     77.43% # Class of executed instruction
system.cpu3.op_class::FloatCvt                      0      0.00%     77.43% # Class of executed instruction
system.cpu3.op_class::FloatMult                     0      0.00%     77.43% # Class of executed instruction
system.cpu3.op_class::FloatDiv                      0      0.00%     77.43% # Class of executed instruction
system.cpu3.op_class::FloatSqrt                     0      0.00%     77.43% # Class of executed instruction
system.cpu3.op_class::SimdAdd                       0      0.00%     77.43% # Class of executed instruction
system.cpu3.op_class::SimdAddAcc                    0      0.00%     77.43% # Class of executed instruction
system.cpu3.op_class::SimdAlu                       0      0.00%     77.43% # Class of executed instruction
system.cpu3.op_class::SimdCmp                       0      0.00%     77.43% # Class of executed instruction
system.cpu3.op_class::SimdCvt                       0      0.00%     77.43% # Class of executed instruction
system.cpu3.op_class::SimdMisc                      0      0.00%     77.43% # Class of executed instruction
system.cpu3.op_class::SimdMult                      0      0.00%     77.43% # Class of executed instruction
system.cpu3.op_class::SimdMultAcc                   0      0.00%     77.43% # Class of executed instruction
system.cpu3.op_class::SimdShift                     0      0.00%     77.43% # Class of executed instruction
system.cpu3.op_class::SimdShiftAcc                  0      0.00%     77.43% # Class of executed instruction
system.cpu3.op_class::SimdSqrt                      0      0.00%     77.43% # Class of executed instruction
system.cpu3.op_class::SimdFloatAdd                  0      0.00%     77.43% # Class of executed instruction
system.cpu3.op_class::SimdFloatAlu                  0      0.00%     77.43% # Class of executed instruction
system.cpu3.op_class::SimdFloatCmp                  0      0.00%     77.43% # Class of executed instruction
system.cpu3.op_class::SimdFloatCvt                  0      0.00%     77.43% # Class of executed instruction
system.cpu3.op_class::SimdFloatDiv                  0      0.00%     77.43% # Class of executed instruction
system.cpu3.op_class::SimdFloatMisc                 0      0.00%     77.43% # Class of executed instruction
system.cpu3.op_class::SimdFloatMult                 0      0.00%     77.43% # Class of executed instruction
system.cpu3.op_class::SimdFloatMultAcc              0      0.00%     77.43% # Class of executed instruction
system.cpu3.op_class::SimdFloatSqrt                 0      0.00%     77.43% # Class of executed instruction
system.cpu3.op_class::MemRead                 1089769     14.66%     92.09% # Class of executed instruction
system.cpu3.op_class::MemWrite                 588045      7.91%    100.00% # Class of executed instruction
system.cpu3.op_class::IprAccess                     0      0.00%    100.00% # Class of executed instruction
system.cpu3.op_class::InstPrefetch                  0      0.00%    100.00% # Class of executed instruction
system.cpu3.op_class::total                   7432770                       # Class of executed instruction
system.iobus.trans_dist::ReadReq                   82                       # Transaction distribution
system.iobus.trans_dist::ReadResp                  82                       # Transaction distribution
system.iobus.trans_dist::WriteReq                1723                       # Transaction distribution
system.iobus.trans_dist::WriteResp               1723                       # Transaction distribution
system.iobus.trans_dist::MessageReq                12                       # Transaction distribution
system.iobus.trans_dist::MessageResp               12                       # Transaction distribution
system.iobus.pkt_count_system.pc.south_bridge.io_apic.int_master::system.ruby.l1_cntrl0.sequencer.pio-slave-port            2                       # Packet count per connected master and slave (bytes)
system.iobus.pkt_count_system.pc.south_bridge.io_apic.int_master::system.ruby.l1_cntrl1.sequencer.pio-slave-port            4                       # Packet count per connected master and slave (bytes)
system.iobus.pkt_count_system.pc.south_bridge.io_apic.int_master::system.ruby.l1_cntrl2.sequencer.pio-slave-port            2                       # Packet count per connected master and slave (bytes)
system.iobus.pkt_count_system.pc.south_bridge.io_apic.int_master::system.ruby.l1_cntrl3.sequencer.pio-slave-port            2                       # Packet count per connected master and slave (bytes)
system.iobus.pkt_count_system.pc.south_bridge.io_apic.int_master::total           10                       # Packet count per connected master and slave (bytes)
system.iobus.pkt_count_system.ruby.l1_cntrl0.sequencer.mem-master-port::system.pc.south_bridge.io_apic.pio            8                       # Packet count per connected master and slave (bytes)
system.iobus.pkt_count_system.ruby.l1_cntrl0.sequencer.mem-master-port::system.ruby.l1_cntrl0.sequencer.pio-slave-port          844                       # Packet count per connected master and slave (bytes)
system.iobus.pkt_count_system.ruby.l1_cntrl0.sequencer.mem-master-port::system.ruby.l1_cntrl1.sequencer.pio-slave-port            2                       # Packet count per connected master and slave (bytes)
system.iobus.pkt_count_system.ruby.l1_cntrl0.sequencer.mem-master-port::total          854                       # Packet count per connected master and slave (bytes)
system.iobus.pkt_count_system.ruby.l1_cntrl1.sequencer.mem-master-port::system.pc.south_bridge.io_apic.pio           14                       # Packet count per connected master and slave (bytes)
system.iobus.pkt_count_system.ruby.l1_cntrl1.sequencer.mem-master-port::system.pc.com_1.pio          162                       # Packet count per connected master and slave (bytes)
system.iobus.pkt_count_system.ruby.l1_cntrl1.sequencer.mem-master-port::system.ruby.l1_cntrl0.sequencer.pio-slave-port            2                       # Packet count per connected master and slave (bytes)
system.iobus.pkt_count_system.ruby.l1_cntrl1.sequencer.mem-master-port::system.ruby.l1_cntrl1.sequencer.pio-slave-port          850                       # Packet count per connected master and slave (bytes)
system.iobus.pkt_count_system.ruby.l1_cntrl1.sequencer.mem-master-port::system.ruby.l1_cntrl2.sequencer.pio-slave-port            2                       # Packet count per connected master and slave (bytes)
system.iobus.pkt_count_system.ruby.l1_cntrl1.sequencer.mem-master-port::total         1030                       # Packet count per connected master and slave (bytes)
system.iobus.pkt_count_system.ruby.l1_cntrl2.sequencer.mem-master-port::system.pc.south_bridge.io_apic.pio            8                       # Packet count per connected master and slave (bytes)
system.iobus.pkt_count_system.ruby.l1_cntrl2.sequencer.mem-master-port::system.ruby.l1_cntrl2.sequencer.pio-slave-port          842                       # Packet count per connected master and slave (bytes)
system.iobus.pkt_count_system.ruby.l1_cntrl2.sequencer.mem-master-port::system.ruby.l1_cntrl3.sequencer.pio-slave-port            2                       # Packet count per connected master and slave (bytes)
system.iobus.pkt_count_system.ruby.l1_cntrl2.sequencer.mem-master-port::total          852                       # Packet count per connected master and slave (bytes)
system.iobus.pkt_count_system.ruby.l1_cntrl3.sequencer.mem-master-port::system.pc.south_bridge.io_apic.pio            6                       # Packet count per connected master and slave (bytes)
system.iobus.pkt_count_system.ruby.l1_cntrl3.sequencer.mem-master-port::system.pc.com_1.pio           22                       # Packet count per connected master and slave (bytes)
system.iobus.pkt_count_system.ruby.l1_cntrl3.sequencer.mem-master-port::system.ruby.l1_cntrl0.sequencer.pio-slave-port            2                       # Packet count per connected master and slave (bytes)
system.iobus.pkt_count_system.ruby.l1_cntrl3.sequencer.mem-master-port::system.ruby.l1_cntrl1.sequencer.pio-slave-port            2                       # Packet count per connected master and slave (bytes)
system.iobus.pkt_count_system.ruby.l1_cntrl3.sequencer.mem-master-port::system.ruby.l1_cntrl2.sequencer.pio-slave-port            2                       # Packet count per connected master and slave (bytes)
system.iobus.pkt_count_system.ruby.l1_cntrl3.sequencer.mem-master-port::system.ruby.l1_cntrl3.sequencer.pio-slave-port          854                       # Packet count per connected master and slave (bytes)
system.iobus.pkt_count_system.ruby.l1_cntrl3.sequencer.mem-master-port::total          888                       # Packet count per connected master and slave (bytes)
system.iobus.pkt_count::total                    3634                       # Packet count per connected master and slave (bytes)
system.iobus.pkt_size_system.pc.south_bridge.io_apic.int_master::system.ruby.l1_cntrl0.sequencer.pio-slave-port            4                       # Cumulative packet size per connected master and slave (bytes)
system.iobus.pkt_size_system.pc.south_bridge.io_apic.int_master::system.ruby.l1_cntrl1.sequencer.pio-slave-port            8                       # Cumulative packet size per connected master and slave (bytes)
system.iobus.pkt_size_system.pc.south_bridge.io_apic.int_master::system.ruby.l1_cntrl2.sequencer.pio-slave-port            4                       # Cumulative packet size per connected master and slave (bytes)
system.iobus.pkt_size_system.pc.south_bridge.io_apic.int_master::system.ruby.l1_cntrl3.sequencer.pio-slave-port            4                       # Cumulative packet size per connected master and slave (bytes)
system.iobus.pkt_size_system.pc.south_bridge.io_apic.int_master::total           20                       # Cumulative packet size per connected master and slave (bytes)
system.iobus.pkt_size_system.ruby.l1_cntrl0.sequencer.mem-master-port::system.pc.south_bridge.io_apic.pio           16                       # Cumulative packet size per connected master and slave (bytes)
system.iobus.pkt_size_system.ruby.l1_cntrl0.sequencer.mem-master-port::system.ruby.l1_cntrl0.sequencer.pio-slave-port         1688                       # Cumulative packet size per connected master and slave (bytes)
system.iobus.pkt_size_system.ruby.l1_cntrl0.sequencer.mem-master-port::system.ruby.l1_cntrl1.sequencer.pio-slave-port            4                       # Cumulative packet size per connected master and slave (bytes)
system.iobus.pkt_size_system.ruby.l1_cntrl0.sequencer.mem-master-port::total         1708                       # Cumulative packet size per connected master and slave (bytes)
system.iobus.pkt_size_system.ruby.l1_cntrl1.sequencer.mem-master-port::system.pc.south_bridge.io_apic.pio           28                       # Cumulative packet size per connected master and slave (bytes)
system.iobus.pkt_size_system.ruby.l1_cntrl1.sequencer.mem-master-port::system.pc.com_1.pio           81                       # Cumulative packet size per connected master and slave (bytes)
system.iobus.pkt_size_system.ruby.l1_cntrl1.sequencer.mem-master-port::system.ruby.l1_cntrl0.sequencer.pio-slave-port            4                       # Cumulative packet size per connected master and slave (bytes)
system.iobus.pkt_size_system.ruby.l1_cntrl1.sequencer.mem-master-port::system.ruby.l1_cntrl1.sequencer.pio-slave-port         1700                       # Cumulative packet size per connected master and slave (bytes)
system.iobus.pkt_size_system.ruby.l1_cntrl1.sequencer.mem-master-port::system.ruby.l1_cntrl2.sequencer.pio-slave-port            4                       # Cumulative packet size per connected master and slave (bytes)
system.iobus.pkt_size_system.ruby.l1_cntrl1.sequencer.mem-master-port::total         1817                       # Cumulative packet size per connected master and slave (bytes)
system.iobus.pkt_size_system.ruby.l1_cntrl2.sequencer.mem-master-port::system.pc.south_bridge.io_apic.pio           16                       # Cumulative packet size per connected master and slave (bytes)
system.iobus.pkt_size_system.ruby.l1_cntrl2.sequencer.mem-master-port::system.ruby.l1_cntrl2.sequencer.pio-slave-port         1684                       # Cumulative packet size per connected master and slave (bytes)
system.iobus.pkt_size_system.ruby.l1_cntrl2.sequencer.mem-master-port::system.ruby.l1_cntrl3.sequencer.pio-slave-port            4                       # Cumulative packet size per connected master and slave (bytes)
system.iobus.pkt_size_system.ruby.l1_cntrl2.sequencer.mem-master-port::total         1704                       # Cumulative packet size per connected master and slave (bytes)
system.iobus.pkt_size_system.ruby.l1_cntrl3.sequencer.mem-master-port::system.pc.south_bridge.io_apic.pio           12                       # Cumulative packet size per connected master and slave (bytes)
system.iobus.pkt_size_system.ruby.l1_cntrl3.sequencer.mem-master-port::system.pc.com_1.pio           11                       # Cumulative packet size per connected master and slave (bytes)
system.iobus.pkt_size_system.ruby.l1_cntrl3.sequencer.mem-master-port::system.ruby.l1_cntrl0.sequencer.pio-slave-port            4                       # Cumulative packet size per connected master and slave (bytes)
system.iobus.pkt_size_system.ruby.l1_cntrl3.sequencer.mem-master-port::system.ruby.l1_cntrl1.sequencer.pio-slave-port            4                       # Cumulative packet size per connected master and slave (bytes)
system.iobus.pkt_size_system.ruby.l1_cntrl3.sequencer.mem-master-port::system.ruby.l1_cntrl2.sequencer.pio-slave-port            4                       # Cumulative packet size per connected master and slave (bytes)
system.iobus.pkt_size_system.ruby.l1_cntrl3.sequencer.mem-master-port::system.ruby.l1_cntrl3.sequencer.pio-slave-port         1708                       # Cumulative packet size per connected master and slave (bytes)
system.iobus.pkt_size_system.ruby.l1_cntrl3.sequencer.mem-master-port::total         1743                       # Cumulative packet size per connected master and slave (bytes)
system.iobus.pkt_size::total                     6992                       # Cumulative packet size per connected master and slave (bytes)
system.iobus.reqLayer8.occupancy                32496                       # Layer occupancy (ticks)
system.iobus.reqLayer8.utilization                0.0                       # Layer utilization (%)
system.iobus.reqLayer12.occupancy              120500                       # Layer occupancy (ticks)
system.iobus.reqLayer12.utilization               0.0                       # Layer utilization (%)
system.iobus.reqLayer17.occupancy             1058999                       # Layer occupancy (ticks)
system.iobus.reqLayer17.utilization               0.0                       # Layer utilization (%)
system.iobus.reqLayer18.occupancy             1070291                       # Layer occupancy (ticks)
system.iobus.reqLayer18.utilization               0.0                       # Layer utilization (%)
system.iobus.reqLayer19.occupancy             1056500                       # Layer occupancy (ticks)
system.iobus.reqLayer19.utilization               0.0                       # Layer utilization (%)
system.iobus.reqLayer20.occupancy             1064498                       # Layer occupancy (ticks)
system.iobus.reqLayer20.utilization               0.0                       # Layer utilization (%)
system.iobus.respLayer0.occupancy                6000                       # Layer occupancy (ticks)
system.iobus.respLayer0.utilization               0.0                       # Layer utilization (%)
system.iobus.respLayer2.occupancy              641000                       # Layer occupancy (ticks)
system.iobus.respLayer2.utilization               0.0                       # Layer utilization (%)
system.iobus.respLayer4.occupancy              792000                       # Layer occupancy (ticks)
system.iobus.respLayer4.utilization               0.0                       # Layer utilization (%)
system.iobus.respLayer6.occupancy              639500                       # Layer occupancy (ticks)
system.iobus.respLayer6.utilization               0.0                       # Layer utilization (%)
system.iobus.respLayer8.occupancy              669500                       # Layer occupancy (ticks)
system.iobus.respLayer8.utilization               0.0                       # Layer utilization (%)
system.pc.south_bridge.ide.disks.dma_read_full_pages            0                       # Number of full page size DMA reads (not PRD).
system.pc.south_bridge.ide.disks.dma_read_bytes            0                       # Number of bytes transfered via DMA reads (not PRD).
system.pc.south_bridge.ide.disks.dma_read_txs            0                       # Number of DMA read transactions (not PRD).
system.pc.south_bridge.ide.disks.dma_write_full_pages            0                       # Number of full page size DMA writes.
system.pc.south_bridge.ide.disks.dma_write_bytes            0                       # Number of bytes transfered via DMA writes.
system.pc.south_bridge.ide.disks.dma_write_txs            0                       # Number of DMA write transactions.
system.ruby.clk_domain.clock                      500                       # Clock period in ticks
system.ruby.outstanding_req_hist_seqr::bucket_size            1                      
system.ruby.outstanding_req_hist_seqr::max_bucket            9                      
system.ruby.outstanding_req_hist_seqr::samples   1225260039                      
system.ruby.outstanding_req_hist_seqr::mean     1.000000                      
system.ruby.outstanding_req_hist_seqr::gmean     1.000000                      
system.ruby.outstanding_req_hist_seqr::stdev     0.000427                      
system.ruby.outstanding_req_hist_seqr    |           0      0.00%      0.00% |  1225259816    100.00%    100.00% |         223      0.00%    100.00% |           0      0.00%    100.00% |           0      0.00%    100.00% |           0      0.00%    100.00% |           0      0.00%    100.00% |           0      0.00%    100.00% |           0      0.00%    100.00% |           0      0.00%    100.00%
system.ruby.outstanding_req_hist_seqr::total   1225260039                      
system.ruby.latency_hist_seqr::bucket_size          256                      
system.ruby.latency_hist_seqr::max_bucket         2559                      
system.ruby.latency_hist_seqr::samples     1225260039                      
system.ruby.latency_hist_seqr::mean          1.723123                      
system.ruby.latency_hist_seqr::gmean         1.058559                      
system.ruby.latency_hist_seqr::stdev         9.871848                      
system.ruby.latency_hist_seqr            |  1225086765     99.99%     99.99% |       90224      0.01%     99.99% |       77757      0.01%    100.00% |        3631      0.00%    100.00% |        1227      0.00%    100.00% |         346      0.00%    100.00% |          64      0.00%    100.00% |          23      0.00%    100.00% |           2      0.00%    100.00% |           0      0.00%    100.00%
system.ruby.latency_hist_seqr::total       1225260039                      
system.ruby.hit_latency_hist_seqr::bucket_size            2                      
system.ruby.hit_latency_hist_seqr::max_bucket           19                      
system.ruby.hit_latency_hist_seqr::samples   1219348930                      
system.ruby.hit_latency_hist_seqr::mean      1.143043                      
system.ruby.hit_latency_hist_seqr::gmean     1.034895                      
[...]
system.ruby.L1Cache_Controller.O.Other_GETS::total        16937                      
system.ruby.L1Cache_Controller.M.Load    |       76358      0.23%      0.23% |    32462087     99.00%     99.23% |       83067      0.25%     99.48% |      169827      0.52%    100.00%
system.ruby.L1Cache_Controller.M.Load::total     32791339                      
system.ruby.L1Cache_Controller.M.Ifetch  |      221194      0.02%      0.02% |  1007256223     99.47%     99.49% |     1257295      0.12%     99.62% |     3878188      0.38%    100.00%
system.ruby.L1Cache_Controller.M.Ifetch::total   1012612900                      
system.ruby.L1Cache_Controller.M.Store   |        2068      3.90%      3.90% |       30260     57.01%     60.91% |        2067      3.89%     64.80% |       18684     35.20%    100.00%
system.ruby.L1Cache_Controller.M.Store::total        53079                      
system.ruby.L1Cache_Controller.M.L2_Replacement |           0      0.00%      0.00% |     3154140     99.97%     99.97% |           1      0.00%     99.97% |        1070      0.03%    100.00%
system.ruby.L1Cache_Controller.M.L2_Replacement::total      3155211                      
system.ruby.L1Cache_Controller.M.L1_to_L2 |        7464      0.12%      0.12% |     6411210     99.63%     99.74% |        6546      0.10%     99.84% |       10045      0.16%    100.00%
system.ruby.L1Cache_Controller.M.L1_to_L2::total      6435265                      
system.ruby.L1Cache_Controller.M.Trigger_L2_to_L1D |         757      0.02%      0.02% |     3248431     99.82%     99.85% |        1592      0.05%     99.89% |        3441      0.11%    100.00%
system.ruby.L1Cache_Controller.M.Trigger_L2_to_L1D::total      3254221                      
system.ruby.L1Cache_Controller.M.Trigger_L2_to_L1I |        3254     42.08%     42.08% |        3040     39.31%     81.39% |        1156     14.95%     96.34% |         283      3.66%    100.00%
system.ruby.L1Cache_Controller.M.Trigger_L2_to_L1I::total         7733                      
system.ruby.L1Cache_Controller.M.Other_GETX |         246     11.32%     11.32% |         921     42.38%     53.70% |         857     39.44%     93.14% |         149      6.86%    100.00%
system.ruby.L1Cache_Controller.M.Other_GETX::total         2173                      
system.ruby.L1Cache_Controller.M.Other_GETS |        3869     21.94%     21.94% |        1348      7.64%     29.58% |        4218     23.92%     53.50% |        8200     46.50%    100.00%
system.ruby.L1Cache_Controller.M.Other_GETS::total        17635                      
system.ruby.L1Cache_Controller.M.Merged_GETS |          36     44.44%     44.44% |          21     25.93%     70.37% |           6      7.41%     77.78% |          18     22.22%    100.00%
system.ruby.L1Cache_Controller.M.Merged_GETS::total           81                      
system.ruby.L1Cache_Controller.MM.Load   |      408943      1.59%      1.59% |    22108266     86.16%     87.75% |      592330      2.31%     90.06% |     2549730      9.94%    100.00%
system.ruby.L1Cache_Controller.MM.Load::total     25659269                      
system.ruby.L1Cache_Controller.MM.Store  |      448924      0.61%      0.61% |    70278675     95.32%     95.93% |      654187      0.89%     96.81% |     2349253      3.19%    100.00%
system.ruby.L1Cache_Controller.MM.Store::total     73731039                      
system.ruby.L1Cache_Controller.MM.L2_Replacement |           0      0.00%      0.00% |     2662798     99.74%     99.74% |           1      0.00%     99.74% |        6889      0.26%    100.00%
system.ruby.L1Cache_Controller.MM.L2_Replacement::total      2669688                      
system.ruby.L1Cache_Controller.MM.L1_to_L2 |        8836      0.05%      0.05% |    16664108     98.93%     98.98% |       16848      0.10%     99.08% |      154880      0.92%    100.00%
system.ruby.L1Cache_Controller.MM.L1_to_L2::total     16844672                      
system.ruby.L1Cache_Controller.MM.Trigger_L2_to_L1D |        3275      0.02%      0.02% |    13966828     99.04%     99.06% |        6856      0.05%     99.11% |      125350      0.89%    100.00%
system.ruby.L1Cache_Controller.MM.Trigger_L2_to_L1D::total     14102309                      
system.ruby.L1Cache_Controller.MM.Other_GETX |        2489     19.26%     19.26% |        4983     38.55%     57.81% |        3200     24.76%     82.57% |        2253     17.43%    100.00%
system.ruby.L1Cache_Controller.MM.Other_GETX::total        12925                      
system.ruby.L1Cache_Controller.MM.Other_GETS |        5344     14.96%     14.96% |       19616     54.90%     69.86% |        6191     17.33%     87.19% |        4578     12.81%    100.00%
system.ruby.L1Cache_Controller.MM.Other_GETS::total        35729                      
system.ruby.L1Cache_Controller.MM.Merged_GETS |          87     30.53%     30.53% |          95     33.33%     63.86% |          90     31.58%     95.44% |          13      4.56%    100.00%
system.ruby.L1Cache_Controller.MM.Merged_GETS::total          285                      
system.ruby.L1Cache_Controller.SR.Load   |        2646      1.96%      1.96% |      122755     91.08%     93.05% |        3374      2.50%     95.55% |        5998      4.45%    100.00%
system.ruby.L1Cache_Controller.SR.Load::total       134773                      
system.ruby.L1Cache_Controller.SR.Ifetch |       23281     23.47%     23.47% |       35759     36.06%     59.53% |       23114     23.31%     82.84% |       17020     17.16%    100.00%
system.ruby.L1Cache_Controller.SR.Ifetch::total        99174                      
system.ruby.L1Cache_Controller.SR.Store  |           8      2.25%      2.25% |         165     46.35%     48.60% |          77     21.63%     70.22% |         106     29.78%    100.00%
system.ruby.L1Cache_Controller.SR.Store::total          356                      
system.ruby.L1Cache_Controller.OR.Load   |         897     18.10%     18.10% |         894     18.04%     36.13% |         566     11.42%     47.55% |        2600     52.45%    100.00%
system.ruby.L1Cache_Controller.OR.Load::total         4957                      
system.ruby.L1Cache_Controller.OR.Ifetch |         921      3.10%      3.10% |       14150     47.62%     50.72% |         490      1.65%     52.37% |       14151     47.63%    100.00%
system.ruby.L1Cache_Controller.OR.Ifetch::total        29712                      
system.ruby.L1Cache_Controller.OR.Store  |           3      6.82%      6.82% |           6     13.64%     20.45% |          15     34.09%     54.55% |          20     45.45%    100.00%
system.ruby.L1Cache_Controller.OR.Store::total           44                      
system.ruby.L1Cache_Controller.MR.Load   |         685      0.02%      0.02% |     3247706     99.87%     99.89% |        1214      0.04%     99.93% |        2383      0.07%    100.00%
system.ruby.L1Cache_Controller.MR.Load::total      3251988                      
system.ruby.L1Cache_Controller.MR.Ifetch |        3254     42.08%     42.08% |        3040     39.31%     81.39% |        1156     14.95%     96.34% |         283      3.66%    100.00%
system.ruby.L1Cache_Controller.MR.Ifetch::total         7733                      
system.ruby.L1Cache_Controller.MR.Store  |          72      3.22%      3.22% |         725     32.47%     35.69% |         378     16.93%     52.62% |        1058     47.38%    100.00%
system.ruby.L1Cache_Controller.MR.Store::total         2233                      
system.ruby.L1Cache_Controller.MMR.Load  |        1067      0.02%      0.02% |     6892679     98.75%     98.77% |        4355      0.06%     98.83% |       81566      1.17%    100.00%
system.ruby.L1Cache_Controller.MMR.Load::total      6979667                      
system.ruby.L1Cache_Controller.MMR.Store |        2208      0.03%      0.03% |     7074149     99.32%     99.35% |        2501      0.04%     99.39% |       43784      0.61%    100.00%
system.ruby.L1Cache_Controller.MMR.Store::total      7122642                      
system.ruby.L1Cache_Controller.IM.Ack    |       13488      0.17%      0.17% |     7984708     99.29%     99.46% |       23584      0.29%     99.75% |       19884      0.25%    100.00%
system.ruby.L1Cache_Controller.IM.Ack::total      8041664                      
system.ruby.L1Cache_Controller.IM.Data   |        1582     37.26%     37.26% |         964     22.70%     59.96% |         734     17.29%     77.25% |         966     22.75%    100.00%
system.ruby.L1Cache_Controller.IM.Data::total         4246                      
system.ruby.L1Cache_Controller.IM.Exclusive_Data |        4152      0.15%      0.15% |     2665220     99.13%     99.28% |        8475      0.32%     99.60% |       10762      0.40%    100.00%
system.ruby.L1Cache_Controller.IM.Exclusive_Data::total      2688609                      
system.ruby.L1Cache_Controller.SM.Other_GETX |           0      0.00%      0.00% |           0      0.00%      0.00% |           1     50.00%     50.00% |           1     50.00%    100.00%
system.ruby.L1Cache_Controller.SM.Other_GETX::total            2                      
system.ruby.L1Cache_Controller.SM.Ack    |        3332     37.82%     37.82% |        2250     25.54%     63.35% |        1167     13.24%     76.60% |        2062     23.40%    100.00%
system.ruby.L1Cache_Controller.SM.Ack::total         8811                      
system.ruby.L1Cache_Controller.SM.Data   |        2227     30.39%     30.39% |        2223     30.34%     60.73% |        1419     19.36%     80.09% |        1459     19.91%    100.00%
system.ruby.L1Cache_Controller.SM.Data::total         7328                      
system.ruby.L1Cache_Controller.OM.Other_GETX |           0      0.00%      0.00% |           0      0.00%      0.00% |           1    100.00%    100.00% |           0      0.00%    100.00%
system.ruby.L1Cache_Controller.OM.Other_GETX::total            1                      
system.ruby.L1Cache_Controller.OM.Ack    |         168     16.97%     16.97% |         204     20.61%     37.58% |         339     34.24%     71.82% |         279     28.18%    100.00%
system.ruby.L1Cache_Controller.OM.Ack::total          990                      
system.ruby.L1Cache_Controller.OM.All_acks_no_sharers |          56     16.97%     16.97% |          68     20.61%     37.58% |         113     34.24%     71.82% |          93     28.18%    100.00%
system.ruby.L1Cache_Controller.OM.All_acks_no_sharers::total          330                      
system.ruby.L1Cache_Controller.ISM.Ack   |        1781     19.39%     19.39% |        3137     34.15%     53.53% |        2752     29.96%     83.49% |        1517     16.51%    100.00%
system.ruby.L1Cache_Controller.ISM.Ack::total         9187                      
system.ruby.L1Cache_Controller.ISM.All_acks_no_sharers |        3809     32.91%     32.91% |        3187     27.54%     60.45% |        2153     18.60%     79.05% |        2425     20.95%    100.00%
system.ruby.L1Cache_Controller.ISM.All_acks_no_sharers::total        11574                      
system.ruby.L1Cache_Controller.M_W.Load  |          25     10.68%     10.68% |          81     34.62%     45.30% |         102     43.59%     88.89% |          26     11.11%    100.00%
system.ruby.L1Cache_Controller.M_W.Load::total          234                      
system.ruby.L1Cache_Controller.M_W.Store |           2      1.53%      1.53% |           7      5.34%      6.87% |         100     76.34%     83.21% |          22     16.79%    100.00%
system.ruby.L1Cache_Controller.M_W.Store::total          131                      
system.ruby.L1Cache_Controller.M_W.Ack   |        3637     10.29%     10.29% |        3078      8.71%     19.00% |        4300     12.16%     31.16% |       24333     68.84%    100.00%
system.ruby.L1Cache_Controller.M_W.Ack::total        35348                      
system.ruby.L1Cache_Controller.M_W.All_acks_no_sharers |        7588      0.23%      0.23% |     3191533     98.59%     98.82% |        8696      0.27%     99.09% |       29496      0.91%    100.00%
system.ruby.L1Cache_Controller.M_W.All_acks_no_sharers::total      3237313                      
system.ruby.L1Cache_Controller.MM_W.Load |           0      0.00%      0.00% |           0      0.00%      0.00% |           1    100.00%    100.00% |           0      0.00%    100.00%
system.ruby.L1Cache_Controller.MM_W.Load::total            1                      
system.ruby.L1Cache_Controller.MM_W.Store |         286      4.52%      4.52% |        1552     24.51%     29.03% |         487      7.69%     36.72% |        4007     63.28%    100.00%
system.ruby.L1Cache_Controller.MM_W.Store::total         6332                      
system.ruby.L1Cache_Controller.MM_W.Ack  |         635      4.41%      4.41% |        6096     42.35%     46.76% |        1190      8.27%     55.02% |        6475     44.98%    100.00%
system.ruby.L1Cache_Controller.MM_W.Ack::total        14396                      
system.ruby.L1Cache_Controller.MM_W.All_acks_no_sharers |        4154      0.15%      0.15% |     2665227     99.13%     99.28% |        8575      0.32%     99.60% |       10784      0.40%    100.00%
system.ruby.L1Cache_Controller.MM_W.All_acks_no_sharers::total      2688740                      
system.ruby.L1Cache_Controller.IS.Other_GETS |           0      0.00%      0.00% |           0      0.00%      0.00% |           4     66.67%     66.67% |           2     33.33%    100.00%
system.ruby.L1Cache_Controller.IS.Other_GETS::total            6                      
system.ruby.L1Cache_Controller.IS.Ack    |       22734      0.23%      0.23% |     9585160     99.00%     99.23% |       23967      0.25%     99.48% |       50289      0.52%    100.00%
system.ruby.L1Cache_Controller.IS.Ack::total      9682150                      
system.ruby.L1Cache_Controller.IS.Shared_Ack |        5088     17.53%     17.53% |       15291     52.69%     70.22% |        4474     15.42%     85.64% |        4167     14.36%    100.00%
system.ruby.L1Cache_Controller.IS.Shared_Ack::total        29020                      
system.ruby.L1Cache_Controller.IS.Data   |         841      8.75%      8.75% |        5436     56.57%     65.32% |         672      6.99%     72.31% |        2661     27.69%    100.00%
system.ruby.L1Cache_Controller.IS.Data::total         9610                      
system.ruby.L1Cache_Controller.IS.Shared_Data |        8008     22.92%     22.92% |       12596     36.05%     58.97% |        8610     24.64%     83.61% |        5726     16.39%    100.00%
system.ruby.L1Cache_Controller.IS.Shared_Data::total        34940                      
system.ruby.L1Cache_Controller.IS.Exclusive_Data |        7590      0.23%      0.23% |     3191540     98.58%     98.82% |        8796      0.27%     99.09% |       29518      0.91%    100.00%
system.ruby.L1Cache_Controller.IS.Exclusive_Data::total      3237444                      
system.ruby.L1Cache_Controller.SS.Load   |           3      0.78%      0.78% |         336     87.50%     88.28% |          38      9.90%     98.18% |           7      1.82%    100.00%
system.ruby.L1Cache_Controller.SS.Load::total          384                      
system.ruby.L1Cache_Controller.SS.Ifetch |         515     12.03%     12.03% |        2076     48.49%     60.52% |        1212     28.31%     88.83% |         478     11.17%    100.00%
system.ruby.L1Cache_Controller.SS.Ifetch::total         4281                      
system.ruby.L1Cache_Controller.SS.Store  |          14     46.67%     46.67% |          11     36.67%     83.33% |           3     10.00%     93.33% |           2      6.67%    100.00%
system.ruby.L1Cache_Controller.SS.Store::total           30                      
system.ruby.L1Cache_Controller.SS.Ack    |        4282     21.44%     21.44% |        5406     27.07%     48.52% |        5567     27.88%     76.40% |        4713     23.60%    100.00%
system.ruby.L1Cache_Controller.SS.Ack::total        19968                      
system.ruby.L1Cache_Controller.SS.Shared_Ack |        1369     17.19%     17.19% |        3796     47.68%     64.87% |        1932     24.27%     89.14% |         865     10.86%    100.00%
system.ruby.L1Cache_Controller.SS.Shared_Ack::total         7962                      
system.ruby.L1Cache_Controller.SS.All_acks |        8818     20.11%     20.11% |       17905     40.83%     60.94% |        9282     21.17%     82.11% |        7847     17.89%    100.00%
system.ruby.L1Cache_Controller.SS.All_acks::total        43852                      
system.ruby.L1Cache_Controller.SS.All_acks_no_sharers |          31      4.44%      4.44% |         127     18.19%     22.64% |           0      0.00%     22.64% |         540     77.36%    100.00%
system.ruby.L1Cache_Controller.SS.All_acks_no_sharers::total          698                      
system.ruby.L1Cache_Controller.OI.Load   |           0      0.00%      0.00% |           5     83.33%     83.33% |           0      0.00%     83.33% |           1     16.67%    100.00%
system.ruby.L1Cache_Controller.OI.Load::total            6                      
system.ruby.L1Cache_Controller.OI.Ifetch |           0      0.00%      0.00% |           2    100.00%    100.00% |           0      0.00%    100.00% |           0      0.00%    100.00%
system.ruby.L1Cache_Controller.OI.Ifetch::total            2                      
system.ruby.L1Cache_Controller.OI.Writeback_Ack |           0      0.00%      0.00% |        4060     75.96%     75.96% |           0      0.00%     75.96% |        1285     24.04%    100.00%
system.ruby.L1Cache_Controller.OI.Writeback_Ack::total         5345                      
system.ruby.L1Cache_Controller.MI.Load   |           0      0.00%      0.00% |         349     95.36%     95.36% |           0      0.00%     95.36% |          17      4.64%    100.00%
system.ruby.L1Cache_Controller.MI.Load::total          366                      
system.ruby.L1Cache_Controller.MI.Ifetch |           0      0.00%      0.00% |           0      0.00%      0.00% |           0      0.00%      0.00% |           1    100.00%    100.00%
system.ruby.L1Cache_Controller.MI.Ifetch::total            1                      
system.ruby.L1Cache_Controller.MI.Store  |           0      0.00%      0.00% |         840     98.82%     98.82% |           0      0.00%     98.82% |          10      1.18%    100.00%
system.ruby.L1Cache_Controller.MI.Store::total          850                      
system.ruby.L1Cache_Controller.MI.Writeback_Ack |           0      0.00%      0.00% |     5816938     99.86%     99.86% |           2      0.00%     99.86% |        7959      0.14%    100.00%
system.ruby.L1Cache_Controller.MI.Writeback_Ack::total      5824899                      
system.ruby.L1Cache_Controller.ST.Complete_L2_to_L1 |       25935     11.07%     11.07% |      158679     67.72%     78.79% |       26565     11.34%     90.13% |       23124      9.87%    100.00%
system.ruby.L1Cache_Controller.ST.Complete_L2_to_L1::total       234303                      
system.ruby.L1Cache_Controller.OT.Complete_L2_to_L1 |        1821      5.25%      5.25% |       15050     43.36%     48.60% |        1071      3.09%     51.69% |       16771     48.31%    100.00%
system.ruby.L1Cache_Controller.OT.Complete_L2_to_L1::total        34713                      
system.ruby.L1Cache_Controller.MT.Complete_L2_to_L1 |        4011      0.12%      0.12% |     3251471     99.68%     99.80% |        2748      0.08%     99.89% |        3724      0.11%    100.00%
system.ruby.L1Cache_Controller.MT.Complete_L2_to_L1::total      3261954                      
system.ruby.L1Cache_Controller.MMT.Complete_L2_to_L1 |        3275      0.02%      0.02% |    13966828     99.04%     99.06% |        6856      0.05%     99.11% |      125350      0.89%    100.00%
system.ruby.L1Cache_Controller.MMT.Complete_L2_to_L1::total     14102309                      

---------- End Simulation Statistics   ----------
